version 2
run General-0-20180408-19:50:41-5652
attr configname General
attr datetime 20180408-19:50:41
attr experiment General
attr inifile omnetpp.ini
attr iterationvars ""
attr iterationvarsf ""
attr measurement ""
attr network SmartConeScenario
attr processid 5652
attr repetition 0
attr replication #0
attr resultdir results
attr runnumber 0
attr seedset 0
param **.debug false
param **.coreDebug false
param *.playgroundSizeX 20000m
param *.playgroundSizeY 2500m
param *.playgroundSizeZ 50m
param *.annotations.draw true
param *.manager.updateInterval 0.1s
param *.manager.host "\"localhost\""
param *.manager.port 9999
param *.manager.autoShutdown true
param *.manager.launchConfig "xmldoc(\"smartcone.launchd.xml\")"
param *.manager.penetrationRate 0.1
param *.manager.numVehicles 10
param *.rsu[0].mobility.x 2000
param *.rsu[0].mobility.y 2000
param *.rsu[0].mobility.z 3
param *.rsu[*].applType "\"TraCIDemoRSU11p\""
param *.rsu[*].appl.headerLength "80 bit"
param *.rsu[*].appl.sendBeacons true
param *.rsu[*].appl.dataOnSch false
param *.rsu[*].appl.beaconInterval 1s
param *.rsu[*].appl.beaconUserPriority 7
param *.rsu[*].appl.dataUserPriority 5
param *.connectionManager.sendDirect true
param *.connectionManager.maxInterfDist 2600m
param *.connectionManager.drawMaxIntfDist false
param *.**.nic.mac1609_4.useServiceChannel false
param *.**.nic.mac1609_4.txPower 20mW
param *.**.nic.mac1609_4.bitrate 6Mbps
param *.**.nic.phy80211p.sensitivity -89dBm
param *.**.nic.phy80211p.useThermalNoise true
param *.**.nic.phy80211p.thermalNoise -110dBm
param *.**.nic.phy80211p.decider "xmldoc(\"config.xml\")"
param *.**.nic.phy80211p.analogueModels "xmldoc(\"config.xml\")"
param *.**.nic.phy80211p.usePropagationDelay true
param *.**.nic.phy80211p.antenna "xmldoc(\"antenna.xml\", \"/root/Antenna[@id='monopole']\")"
param *.node[*].applType "\"SmartConeApp\""
param *.node[*].appl.headerLength "80 bit"
param *.node[*].appl.sendBeacons true
param *.node[*].appl.dataOnSch false
param *.node[*].appl.beaconInterval 1s
param *.node[*].veinsmobilityType.debug true
param *.node[*].veinsmobility.x 0
param *.node[*].veinsmobility.y 0
param *.node[*].veinsmobility.z 1.895
param *.node[*0].veinsmobility.accidentCount 1
param *.node[*0].veinsmobility.accidentStart 75s
param *.node[*0].veinsmobility.accidentDuration 50s

vector 0 SmartConeScenario.node[0].veinsmobility posx ETV
vector 1 SmartConeScenario.node[0].veinsmobility posy ETV
vector 2 SmartConeScenario.node[0].veinsmobility speed ETV
vector 3 SmartConeScenario.node[0].veinsmobility acceleration ETV
vector 4 SmartConeScenario.node[0].veinsmobility co2emission ETV
vector 5 SmartConeScenario.node[1].veinsmobility posx ETV
vector 6 SmartConeScenario.node[1].veinsmobility posy ETV
vector 7 SmartConeScenario.node[2].veinsmobility posx ETV
vector 8 SmartConeScenario.node[2].veinsmobility posy ETV
vector 9 SmartConeScenario.node[3].veinsmobility posx ETV
vector 10 SmartConeScenario.node[3].veinsmobility posy ETV
vector 11 SmartConeScenario.node[1].veinsmobility speed ETV
vector 12 SmartConeScenario.node[2].veinsmobility speed ETV
vector 13 SmartConeScenario.node[3].veinsmobility speed ETV
vector 14 SmartConeScenario.node[1].veinsmobility acceleration ETV
vector 15 SmartConeScenario.node[1].veinsmobility co2emission ETV
vector 16 SmartConeScenario.node[2].veinsmobility acceleration ETV
vector 17 SmartConeScenario.node[2].veinsmobility co2emission ETV
vector 18 SmartConeScenario.node[3].veinsmobility acceleration ETV
vector 19 SmartConeScenario.node[3].veinsmobility co2emission ETV
vector 20 SmartConeScenario.node[4].veinsmobility posx ETV
vector 21 SmartConeScenario.node[4].veinsmobility posy ETV
vector 22 SmartConeScenario.node[4].veinsmobility speed ETV
vector 23 SmartConeScenario.node[4].veinsmobility acceleration ETV
vector 24 SmartConeScenario.node[4].veinsmobility co2emission ETV
vector 25 SmartConeScenario.node[5].veinsmobility posx ETV
vector 26 SmartConeScenario.node[5].veinsmobility posy ETV
vector 27 SmartConeScenario.node[5].veinsmobility speed ETV
vector 28 SmartConeScenario.node[5].veinsmobility acceleration ETV
vector 29 SmartConeScenario.node[5].veinsmobility co2emission ETV
vector 30 SmartConeScenario.node[6].veinsmobility posx ETV
vector 31 SmartConeScenario.node[6].veinsmobility posy ETV
vector 32 SmartConeScenario.node[6].veinsmobility speed ETV
vector 33 SmartConeScenario.node[6].veinsmobility acceleration ETV
vector 34 SmartConeScenario.node[6].veinsmobility co2emission ETV
vector 35 SmartConeScenario.node[7].veinsmobility posx ETV
vector 36 SmartConeScenario.node[7].veinsmobility posy ETV
vector 37 SmartConeScenario.node[7].veinsmobility speed ETV
vector 38 SmartConeScenario.node[7].veinsmobility acceleration ETV
vector 39 SmartConeScenario.node[7].veinsmobility co2emission ETV
vector 40 SmartConeScenario.node[8].veinsmobility posx ETV
vector 41 SmartConeScenario.node[8].veinsmobility posy ETV
vector 42 SmartConeScenario.node[8].veinsmobility speed ETV
vector 43 SmartConeScenario.node[8].veinsmobility acceleration ETV
vector 44 SmartConeScenario.node[8].veinsmobility co2emission ETV
vector 45 SmartConeScenario.node[9].veinsmobility posx ETV
vector 46 SmartConeScenario.node[9].veinsmobility posy ETV
vector 47 SmartConeScenario.node[9].veinsmobility speed ETV
vector 48 SmartConeScenario.node[9].veinsmobility acceleration ETV
vector 49 SmartConeScenario.node[9].veinsmobility co2emission ETV
vector 50 SmartConeScenario.node[10].veinsmobility posx ETV
vector 51 SmartConeScenario.node[10].veinsmobility posy ETV
vector 52 SmartConeScenario.node[10].veinsmobility speed ETV
vector 53 SmartConeScenario.node[10].veinsmobility acceleration ETV
vector 54 SmartConeScenario.node[10].veinsmobility co2emission ETV
vector 55 SmartConeScenario.node[11].veinsmobility posx ETV
vector 56 SmartConeScenario.node[11].veinsmobility posy ETV
vector 57 SmartConeScenario.node[11].veinsmobility speed ETV
vector 58 SmartConeScenario.node[11].veinsmobility acceleration ETV
vector 59 SmartConeScenario.node[11].veinsmobility co2emission ETV
vector 60 SmartConeScenario.node[12].veinsmobility posx ETV
vector 61 SmartConeScenario.node[12].veinsmobility posy ETV
vector 62 SmartConeScenario.node[12].veinsmobility speed ETV
vector 63 SmartConeScenario.node[12].veinsmobility acceleration ETV
vector 64 SmartConeScenario.node[12].veinsmobility co2emission ETV
vector 65 SmartConeScenario.node[13].veinsmobility posx ETV
vector 66 SmartConeScenario.node[13].veinsmobility posy ETV
vector 67 SmartConeScenario.node[13].veinsmobility speed ETV
vector 68 SmartConeScenario.node[13].veinsmobility acceleration ETV
vector 69 SmartConeScenario.node[13].veinsmobility co2emission ETV
vector 70 SmartConeScenario.node[14].veinsmobility posx ETV
vector 71 SmartConeScenario.node[14].veinsmobility posy ETV
vector 72 SmartConeScenario.node[14].veinsmobility speed ETV
vector 73 SmartConeScenario.node[14].veinsmobility acceleration ETV
vector 74 SmartConeScenario.node[14].veinsmobility co2emission ETV
vector 75 SmartConeScenario.node[15].veinsmobility posx ETV
vector 76 SmartConeScenario.node[15].veinsmobility posy ETV
vector 77 SmartConeScenario.node[15].veinsmobility speed ETV
vector 78 SmartConeScenario.node[15].veinsmobility acceleration ETV
vector 79 SmartConeScenario.node[15].veinsmobility co2emission ETV
vector 80 SmartConeScenario.node[16].veinsmobility posx ETV
vector 81 SmartConeScenario.node[16].veinsmobility posy ETV
vector 82 SmartConeScenario.node[16].veinsmobility speed ETV
vector 83 SmartConeScenario.node[16].veinsmobility acceleration ETV
vector 84 SmartConeScenario.node[16].veinsmobility co2emission ETV
vector 85 SmartConeScenario.node[17].veinsmobility posx ETV
vector 86 SmartConeScenario.node[17].veinsmobility posy ETV
vector 87 SmartConeScenario.node[17].veinsmobility speed ETV
vector 88 SmartConeScenario.node[17].veinsmobility acceleration ETV
vector 89 SmartConeScenario.node[17].veinsmobility co2emission ETV
0	21	1.1	52.144927667336
0	22	1.2	52.144927667336
0	23	1.3	52.170583745041
0	24	1.4	52.221680515644
0	34	1.5	52.29639640112
0	35	1.6	52.395166007614
0	45	1.7	52.517692831134
0	46	1.8	52.665482364891
0	47	1.9	52.833444406479
0	48	2	53.020126217263
0	49	2.1	53.226744503906
0	50	2.2	53.448209333749
0	51	2.3	53.693678242056
0	52	2.4	53.959760358719
0	62	2.5	54.249775870757
0	63	2.6	54.561667760113
0	73	2.7	54.894766222315
0	74	2.8	55.245767685305
0	75	2.9	55.610075175246
0	76	3	55.99965837418
0	77	3.1	56.414732131857
0	78	3.2	56.851133111437
0	79	3.3	57.309400309765
0	80	3.4	57.790848820361
0	90	3.5	58.294847267573
0	91	3.6	58.812870665829
0	101	3.7	59.352752667671
0	102	3.8	59.910221405711
0	103	3.9	60.491308656026
0	104	4	61.096251680354
0	105	4.1	61.71838308967
0	106	4.2	62.362764305365
0	107	4.3	63.025655475693
0	108	4.4	63.70624067198
0	118	4.5	64.407013238345
0	119	4.6	65.132275179881
0	129	4.7	65.878382546812
0	130	4.8	66.646418075425
0	131	4.9	67.43102529838
0	132	5	68.238635592034
0	133	5.1	69.064362773868
0	134	5.2	69.906780986767
0	135	5.3	70.767164999116
0	136	5.4	71.652211787786
0	146	5.5	72.555577230537
0	147	5.6	73.47234617033
0	157	5.7	74.403460004345
0	158	5.8	75.3477812893
0	159	5.9	76.308952022643
0	160	6	77.291542704398
0	161	6.1	78.298190558193
0	162	6.2	79.324230311135
0	163	6.3	80.3552353229
0	164	6.4	81.39544479804
0	174	6.5	82.428407342719
0	175	6.6	83.469778815973
0	185	6.7	84.500682491235
0	186	6.8	85.530438004185
0	187	6.9	86.565693647067
0	188	7	87.605389392303
0	189	7.1	88.644507490149
0	190	7.2	89.678629321591
0	191	7.3	90.718517416277
0	192	7.4	91.751458259989
0	202	7.5	92.785505821326
0	203	7.6	93.817773964837
0	213	7.7	94.854626209681
0	214	7.8	95.89381158662
0	215	7.9	96.929464740916
0	216	8	97.970385017265
0	217	8.1	99.008360789587
0	218	8.2	100.0480550605
0	219	8.3	101.08386242698
0	220	8.4	102.11978808226
0	230	8.5	103.15883734978
0	231	8.6	104.19664558986
0	241	8.7	105.23314383859
0	242	8.8	106.26888864528
0	243	8.9	107.30683976284
0	244	9	108.34687085561
0	245	9.1	109.38647601749
0	246	9.2	110.42490551744
0	247	9.3	111.4560090652
0	248	9.4	112.48865113533
0	258	9.5	113.52785339762
0	259	9.6	114.56716347498
0	269	9.7	115.60196915361
0	270	9.8	116.63485284012
0	271	9.9	117.66664391085
0	272	10	118.69724772297
0	273	10.1	119.73006571575
0	274	10.2	120.76204159628
0	275	10.3	121.79126529535
0	276	10.4	122.82795801623
0	286	10.5	123.868418594
0	287	10.6	124.90598084123
0	297	10.7	125.94281647403
0	298	10.8	126.98061655873
0	299	10.9	128.01868611106
0	300	11	129.05017971654
0	301	11.1	130.08728139622
0	302	11.2	131.12311631129
0	303	11.3	132.15939923086
0	304	11.4	133.19480690272
0	314	11.5	134.22582144233
0	315	11.6	135.26772461479
0	325	11.7	136.29772660892
0	326	11.8	137.32828050691
0	327	11.9	138.36413086285
0	328	12	139.4042901998
0	329	12.1	140.44440813793
0	330	12.2	141.48523787444
0	331	12.3	142.51586429058
0	332	12.4	143.5503508469
0	342	12.5	144.58240944004
0	343	12.6	145.61789400221
0	353	12.7	146.65184130055
0	354	12.8	147.69276540537
0	355	12.9	148.72261681989
0	356	13	149.76065511993
0	357	13.1	150.79577019928
0	358	13.2	151.82988000949
0	359	13.3	152.87078420584
0	360	13.4	153.9061433513
0	370	13.5	154.94063049766
0	371	13.6	155.96989830054
0	381	13.7	157.00789653989
0	382	13.8	158.04514032738
0	383	13.9	159.07828299759
0	384	14	160.10921089481
0	385	14.1	161.14164306798
0	386	14.2	162.17850425122
0	387	14.3	163.21718933466
0	388	14.4	164.25764467498
0	398	14.5	165.28808399882
0	399	14.6	166.32863350124
0	409	14.7	167.36644535676
0	410	14.8	168.40462332445
0	411	14.9	169.43943274679
0	412	15	170.47692769094
0	413	15.1	171.50975388266
0	414	15.2	172.54596529508
0	415	15.3	173.57551107563
0	416	15.4	174.61560997926
0	426	15.5	175.64495432603
0	427	15.6	176.67543887657
0	437	15.7	177.71712320213
0	438	15.8	178.75696082758
0	439	15.9	179.79232807472
0	440	16	180.82207599622
0	441	16.1	181.85697641756
0	442	16.2	182.89074979795
0	443	16.3	183.92552407039
0	444	16.4	184.96202158984
0	454	16.5	185.99506909011
0	455	16.6	187.0276842868
0	465	16.7	188.05707633295
0	466	16.8	189.09337679246
0	467	16.9	190.1234520025
0	468	17	191.15499441994
0	469	17.1	192.1854890958
0	470	17.2	193.22043779891
0	471	17.3	194.26089496594
0	472	17.4	195.30141480619
0	482	17.5	196.33612774429
0	483	17.6	197.37506229724
0	493	17.7	198.40895955226
0	494	17.8	199.44534464845
0	495	17.9	200.48172187888
0	496	18	201.51958364841
0	497	18.1	202.56154530207
0	498	18.2	203.6009696846
0	499	18.3	204.6347689972
0	500	18.4	205.66910106725
0	510	18.5	206.70258892888
0	511	18.6	207.74412970198
0	521	18.7	208.77742228695
0	522	18.8	209.81797608875
0	523	18.9	210.85972325406
0	524	19	211.8994200419
0	525	19.1	212.92927507537
0	526	19.2	213.95971078157
0	527	19.3	214.99928208576
0	528	19.4	216.03326182813
0	538	19.5	217.06363539048
0	539	19.6	218.09905543418
0	549	19.7	219.13479636891
0	550	19.8	220.17521551018
0	551	19.9	221.21695897164
0	552	20	222.24710620456
0	553	20.1	223.27830221775
0	554	20.2	224.31303083181
0	555	20.3	225.34640614004
0	556	20.4	226.37684817219
0	566	20.5	227.40852513854
0	567	20.6	228.44053548884
0	577	20.7	229.47557998018
0	578	20.8	230.51573337962
0	579	20.9	231.55704610371
0	580	21	232.59475674088
0	581	21.1	233.6358705188
0	582	21.2	234.67334694315
0	583	21.3	235.71287072824
0	584	21.4	236.74654927421
0	594	21.5	237.78597168479
0	595	21.6	238.82285873374
0	605	21.7	239.85697100046
0	606	21.8	240.88630169572
0	607	21.9	241.91745808205
0	608	22	242.95009880853
0	609	22.1	243.97940680913
0	610	22.2	245.01275563427
0	638	22.3	246.04952876809
0	639	22.4	247.08459679949
0	694	22.5	248.11451635271
0	722	22.6	249.13651456777
0	732	22.7	250.1175242122
0	733	22.8	251.06675246333
0	734	22.9	251.99109639186
0	735	23	252.88261701602
0	736	23.1	253.75611827946
0	737	23.2	254.60396863291
0	765	23.3	255.422540605
0	766	23.4	256.2113387685
0	821	23.5	256.97747349332
0	849	23.6	257.7105652216
0	859	23.7	258.43226580886
0	860	23.8	259.12205538642
0	861	23.9	259.79429031309
0	862	24	260.43855615394
0	863	24.1	261.07302821095
0	864	24.2	261.68389844155
0	892	24.3	262.27173688948
0	893	24.4	262.85042358033
0	948	24.5	263.41377831772
0	976	24.6	263.95211549224
0	986	24.7	264.47849768684
0	987	24.8	264.99844826377
0	988	24.9	265.49859854883
0	989	25	265.9911825248
0	990	25.1	266.46620229996
0	991	25.2	266.92700312606
0	1019	25.3	267.38013440696
0	1020	25.4	267.8243457815
0	1075	25.5	268.26531297559
0	1103	25.6	268.69392476152
0	1113	25.7	269.12033492771
0	1114	25.8	269.54263298343
0	1115	25.9	269.96146412234
0	1116	26	270.37542531866
0	1117	26.1	270.78036755185
0	1118	26.2	271.19202430413
0	1146	26.3	271.60012641535
0	1147	26.4	272.00080349348
0	1202	26.5	272.40055178726
0	1230	26.6	272.80761333551
0	1240	26.7	273.21442094449
0	1241	26.8	273.62273820746
0	1242	26.9	274.03793493211
0	1243	27	274.45168806494
0	1244	27.1	274.8591029023
0	1245	27.2	275.27253638355
0	1273	27.3	275.69062667047
0	1274	27.4	276.11844212711
0	1329	27.5	276.55045922782
0	1357	27.6	276.98461209169
0	1367	27.7	277.4134057504
0	1368	27.8	277.85141800155
0	1369	27.9	278.29295964245
0	1370	28	278.74360012263
0	1371	28.1	279.19608444393
0	1372	28.2	279.65273651553
0	1400	28.3	280.12160340384
0	1401	28.4	280.59604440823
0	1456	28.5	281.07135245544
0	1484	28.6	281.55018528068
0	1496	28.7	282.03286119477
0	1497	28.8	282.53268658499
0	1498	28.9	283.03740570281
0	1499	29	283.54746070359
0	1500	29.1	284.06559415131
0	1501	29.2	284.59364177115
0	1529	29.3	285.1214133087
0	1530	29.4	285.65422533586
0	1587	29.5	286.1991067101
0	1615	29.6	286.75275400092
0	1627	29.7	287.31533091121
0	1628	29.8	287.88503579431
0	1629	29.9	288.46005523821
0	1630	30	289.04156043584
0	1631	30.1	289.63896724583
0	1632	30.2	290.2348900841
0	1666	30.3	290.84351794967
0	1667	30.4	291.45996569936
0	1736	30.5	292.07680396659
0	1770	30.6	292.71011542013
0	1782	30.7	293.34973476655
0	1783	30.8	293.98996814076
0	1784	30.9	294.63909231903
0	1818	31	295.29783444658
0	1819	31.1	295.96751070615
0	1820	31.2	296.64849711169
0	1854	31.3	297.3367826657
0	1855	31.4	298.03469908413
0	1924	31.5	298.73599702083
0	1958	31.6	299.44288584247
0	1970	31.7	300.1564852726
0	1971	31.8	300.87466251681
0	1972	31.9	301.6084126835
0	2006	32	302.35393792107
0	2007	32.1	303.10977245823
0	2008	32.2	303.86406091446
0	2042	32.3	304.62587611842
0	2043	32.4	305.40337293169
0	2114	32.5	306.19102624023
0	2148	32.6	306.99005906511
0	2162	32.7	307.79681201677
0	2163	32.8	308.61372910504
0	2164	32.9	309.44053943137
0	2198	33	310.27584049568
0	2199	33.1	311.1056900211
0	2200	33.2	311.9554053198
0	2234	33.3	312.8021558203
0	2235	33.4	313.65797093811
0	2306	33.5	314.52210714485
0	2340	33.6	315.40497847434
0	2354	33.7	316.29045025131
0	2355	33.8	317.15318201234
0	2356	33.9	318.00043039338
0	2390	34	318.82833547557
0	2391	34.1	319.64625110284
0	2392	34.2	320.44128402303
0	2426	34.3	321.21657319185
0	2427	34.4	321.98544157182
0	2498	34.5	322.73617398782
0	2532	34.6	323.47393707561
0	2546	34.7	324.2103292667
0	2547	34.8	324.93383926253
0	2548	34.9	325.64239786659
0	2582	35	326.34346996056
0	2583	35.1	327.026184526
0	2584	35.2	327.70897789601
0	2618	35.3	328.37837617446
0	2619	35.4	329.04393201637
0	2690	35.5	329.69770579153
0	2724	35.6	330.34706974229
0	2738	35.7	330.99027419162
0	2739	35.8	331.63030229838
0	2740	35.9	332.27179376755
0	2774	36	332.90231512001
0	2775	36.1	333.52943962298
0	2776	36.2	334.14938714597
0	2810	36.3	334.7694497046
0	2811	36.4	335.3687001152
0	2882	36.5	335.96557649463
0	2916	36.6	336.55065153379
0	2930	36.7	337.1172379303
0	2931	36.8	337.67966056632
0	2932	36.9	338.23041522102
0	2966	37	338.76755583812
0	2967	37.1	339.29223736725
0	2968	37.2	339.80699045485
0	3008	37.3	340.31758272611
0	3009	37.4	340.82366813123
0	3131	37.5	341.31829489621
0	3171	37.6	341.7954655472
0	3185	37.7	342.27056388109
0	3186	37.8	342.73310978004
0	3187	37.9	343.18613782991
0	3227	38	343.63474077202
0	3228	38.1	344.08038129062
0	3229	38.2	344.51464836395
0	3269	38.3	344.94011137915
0	3270	38.4	345.35133743796
0	3392	38.5	345.76002439892
0	3432	38.6	346.16555497696
0	3446	38.7	346.56212228651
0	3447	38.8	346.94599668326
0	3448	38.9	347.32995627679
0	3488	39	347.70370731516
0	3489	39.1	348.07925952948
0	3490	39.2	348.43962703169
0	3530	39.3	348.80390131054
0	3531	39.4	349.16816165451
0	3653	39.5	349.52098118997
0	3693	39.6	349.86517907237
0	3707	39.7	350.21132310785
0	3708	39.8	350.55906439699
0	3709	39.9	350.90526791928
0	3749	40	351.24963999999
0	3750	40.1	351.59179225131
0	3751	40.2	351.93298113838
0	3791	40.3	352.2753304282
0	3792	40.4	352.61427920056
0	3914	40.5	352.94555048316
0	3954	40.6	353.28385968791
0	3968	40.7	353.61980387926
0	3969	40.8	353.9632892175
0	3970	40.9	354.30011526964
0	4010	41	354.64272980273
0	4011	41.1	354.98663429334
0	4012	41.2	355.32690988336
0	4052	41.3	355.67705950383
0	4053	41.4	356.03053966955
0	4175	41.5	356.37670714534
0	4215	41.6	356.73882274695
0	4229	41.7	357.10259427151
0	4230	41.8	357.46204875448
0	4231	41.9	357.83192016357
0	4271	42	358.20368723799
0	4272	42.1	358.57636293696
0	4273	42.2	358.95111959813
0	4313	42.3	359.33734485901
0	4314	42.4	359.72103297937
0	4436	42.5	360.12108647081
0	4476	42.6	360.52175147787
0	4490	42.7	360.92917160074
0	4491	42.8	361.33793796955
0	4492	42.9	361.75679134387
0	4532	43	362.1848098818
0	4533	43.1	362.61480857268
0	4534	43.2	363.0469679555
0	4574	43.3	363.4843659965
0	4575	43.4	363.92602400173
0	4697	43.5	364.38194543859
0	4737	43.6	364.83399326672
0	4751	43.7	365.29851732957
0	4752	43.8	365.7769451602
0	4753	43.9	366.2587669863
0	4793	44	366.74143708188
0	4794	44.1	367.23696457883
0	4795	44.2	367.7372874728
0	4835	44.3	368.24035641004
0	4836	44.4	368.75002888082
0	4958	44.5	369.26385599914
0	4998	44.6	369.79221227785
0	5012	44.7	370.32184977174
0	5013	44.8	370.86520357318
0	5014	44.9	371.41628147601
0	5054	45	371.96972279474
0	5055	45.1	372.52991455691
0	5056	45.2	373.09955271168
0	5096	45.3	373.67761924053
0	5097	45.4	374.26552634227
0	5219	45.5	374.86537118289
0	5259	45.6	375.4703589063
0	5273	45.7	376.07733402945
0	5274	45.8	376.69337695225
0	5275	45.9	377.32257686587
0	5315	46	377.95921097584
0	5316	46.1	378.60059637339
0	5317	46.2	379.25115867622
0	5363	46.3	379.90607675284
0	5364	46.4	380.56827539147
0	5504	46.5	381.24208197499
0	5550	46.6	381.91720994779
0	5564	46.7	382.60174179595
0	5565	46.8	383.30022661625
0	5566	46.9	383.99753942667
0	5657	47	384.7132890429
0	5658	47.1	385.42980433266
0	5659	47.2	386.15941559797
0	5705	47.3	386.8974071281
0	5706	47.4	387.6336244645
0	5846	47.5	388.38143838648
0	5892	47.6	389.14167085855
0	5906	47.7	389.90613037174
0	5907	47.8	390.67415217175
0	5908	47.9	391.45412334909
0	5999	48	392.24115913005
0	6000	48.1	393.03504897387
0	6001	48.2	393.83379247258
0	6047	48.3	394.64877230153
0	6048	48.4	395.46961127319
0	6188	48.5	396.30228290239
0	6234	48.6	397.13505445925
0	6248	48.7	397.97301893361
0	6249	48.8	398.82155190915
0	6250	48.9	399.68380643834
0	6341	49	400.54658642125
0	6342	49.1	401.41848372401
0	6343	49.2	402.30792913016
0	6389	49.3	403.19937258447
0	6390	49.4	404.09374615767
0	6530	49.5	404.99858406495
0	6576	49.6	405.90156636356
0	6590	49.7	406.82267711364
0	6591	49.8	407.75252234645
0	6592	49.9	408.67853648946
0	6683	50	409.62187052989
0	6684	50.1	410.57271256129
0	6685	50.2	411.52308405768
0	6731	50.3	412.48618489535
0	6732	50.4	413.46156717156
0	6872	50.5	414.43955486179
0	6918	50.6	415.4108460382
0	6932	50.7	416.37246642389
0	6933	50.8	417.32742966439
0	6934	50.9	418.27242602424
0	7025	51	419.21028633007
0	7026	51.1	420.13127652846
0	7027	51.2	421.04816378476
0	7073	51.3	421.96973470582
0	7074	51.4	422.87295488816
0	7214	51.5	423.77207737208
0	7260	51.6	424.66911480682
0	7274	51.7	425.56721477974
0	7275	51.8	426.45722278279
0	7276	51.9	427.34760222033
0	7367	52	428.22275141463
0	7368	52.1	429.09409387019
0	7369	52.2	429.96964079918
0	7415	52.3	430.83361764021
0	7416	52.4	431.70626901908
0	7556	52.5	432.57699712036
0	7602	52.6	433.4442778012
0	7616	52.7	434.3117312956
0	7617	52.8	435.16471917987
0	7618	52.9	436.00794904498
0	7709	53	436.85678894861
0	7710	53.1	437.70011777947
0	7711	53.2	438.53223257194
0	7763	53.3	439.35623218522
0	7764	53.4	440.17062224498
0	7922	53.5	440.97790237062
0	7974	53.6	441.78740606287
0	7988	53.7	442.59327567125
0	8040	53.8	443.38607683731
0	8041	53.9	444.17504311361
0	8144	54	444.95881046154
0	8145	54.1	445.73363706341
0	8146	54.2	446.50568664348
0	8198	54.3	447.2691619882
0	8199	54.4	448.02353652423
0	8357	54.5	448.77967580575
0	8409	54.6	449.53749945685
0	8425	54.7	450.28930682231
0	8477	54.8	451.02591785026
0	8478	54.9	451.76386449889
0	8583	55	452.49669991216
0	8584	55.1	453.22300940804
0	8585	55.2	453.95094452912
0	8637	55.3	454.67471479057
0	8638	55.4	455.39526138959
0	8796	55.5	456.11364552388
0	8848	55.6	456.83621996929
0	8864	55.7	457.55360417972
0	8916	55.8	458.26199604275
0	8917	55.9	458.97314404146
0	9022	56	459.68727169326
0	9023	56.1	460.39053031283
0	9024	56.2	461.10077238717
0	9076	56.3	461.80387483305
0	9077	56.4	462.50039289481
0	9235	56.5	463.20435123553
0	9287	56.6	463.91012582149
0	9303	56.7	464.61057607743
0	9355	56.8	465.30381809228
0	9356	56.9	465.99675362374
0	9461	57	466.68490554147
0	9462	57.1	467.37557178283
0	9463	57.2	468.0695146717
0	9515	57.3	468.75714809873
0	9516	57.4	469.43750239052
0	9674	57.5	470.11851512968
0	9726	57.6	470.79633282626
0	9742	57.7	471.47412492656
0	9794	57.8	472.15148816845
0	9795	57.9	472.83318296987
0	9900	58	473.51106021888
0	9901	58.1	474.17786913173
0	9902	58.2	474.84673961006
0	9954	58.3	475.51776182168
0	9955	58.4	476.18627183912
0	10113	58.5	476.85215952569
0	10165	58.6	477.51921058053
0	10181	58.7	478.17873906321
0	10233	58.8	478.84058555211
0	10234	58.9	479.50421386576
0	10339	59	480.15984798887
0	10340	59.1	480.81957193551
0	10341	59.2	481.47468602233
0	10393	59.3	482.12981670238
0	10394	59.4	482.78665170131
0	10544	59.5	483.44324814516
0	10596	59.6	484.09617494498
0	10614	59.7	484.75300971049
0	10668	59.8	485.40900892168
0	10669	59.9	486.07108986497
0	10774	60	486.72290512699
0	10775	60.1	487.38381112024
0	10776	60.2	488.03482368004
0	10828	60.3	488.6912601563
0	10829	60.4	489.34680091673
0	10979	60.5	489.99955111789
0	11031	60.6	490.65565221703
0	11049	60.7	491.31000602373
0	11103	60.8	491.96897354457
0	11104	60.9	492.6254294619
0	11209	61	493.28152681334
0	11210	61.1	493.93689424545
0	11211	61.2	494.58615883514
0	11263	61.3	495.2398750322
0	11264	61.4	495.90152864237
0	11414	61.5	496.56138522089
0	11466	61.6	497.2166417741
0	11484	61.7	497.8720596061
0	11538	61.8	498.52918979221
0	11539	61.9	499.19362752937
0	11644	62	499.8585781761
0	11645	62.1	500.52001322089
0	11646	62.2	501.18579240885
0	11704	62.3	501.84687249159
0	11705	62.4	502.51320751617
0	11865	62.5	503.18590050005
0	11972	62.6	503.85345268593
0	11990	62.7	504.53002427401
0	12050	62.8	505.20038503317
0	12051	62.9	505.88055286501
0	12168	63	506.56780406135
0	12169	63.1	507.24659307733
0	12170	63.2	507.93163287602
0	12228	63.3	508.62474650601
0	12229	63.4	509.30740242798
0	12393	63.5	509.99955407123
0	12500	63.6	510.68915509226
0	12518	63.7	511.38300526548
0	12578	63.8	512.07425149657
0	12579	63.9	512.77994976567
0	12696	64	513.48289930037
0	12697	64.1	514.18671771249
0	12698	64.2	514.89754462775
0	12756	64.3	515.60248850998
0	12757	64.4	516.32229032492
0	12917	64.5	517.0367386303
0	13030	64.6	517.76516017155
0	13050	64.7	518.48484558073
0	13110	64.8	519.21969945308
0	13111	64.9	519.95702320691
0	13228	65	520.68978384239
0	13229	65.1	521.42591081912
0	13230	65.2	522.17087656823
0	13288	65.3	522.92001846327
0	13289	65.4	523.67144378749
0	13449	65.5	524.42883581147
0	13558	65.6	525.18498692088
0	13578	65.7	525.95351182576
0	13638	65.8	526.72319375359
0	13639	65.9	527.49342713817
0	13756	66	528.26653853071
0	13757	66.1	529.05472780342
0	13758	66.2	529.84612054328
0	13816	66.3	530.63868697069
0	13817	66.4	531.43288894405
0	13977	66.5	532.23833680335
0	14090	66.6	533.03961402495
0	14110	66.7	533.84411822847
0	14170	66.8	534.6523736384
0	14171	66.9	535.46168546834
0	14288	67	536.27141692656
0	14289	67.1	537.09245195299
0	14290	67.2	537.92172069752
0	14348	67.3	538.7504032392
0	14349	67.4	539.57842229997
0	14509	67.5	540.40458951368
0	14618	67.6	541.23886190692
0	14638	67.7	542.08068393849
0	14698	67.8	542.91595695504
0	14699	67.9	543.76286607512
0	14816	68	544.60429587729
0	14817	68.1	545.45826542643
0	14818	68.2	546.31376013564
0	14876	68.3	547.16878028611
0	14877	68.4	548.02406461114
0	15029	68.5	548.88769137335
0	15138	68.6	549.75004619951
0	15158	68.7	550.62081287555
0	15218	68.8	551.48555214655
0	15219	68.9	552.35750658296
0	15336	69	553.22783537938
0	15337	69.1	554.10292200933
0	15338	69.2	554.9811265874
0	15402	69.3	555.86931188186
0	15403	69.4	556.74362646957
0	15565	69.5	557.6321989314
0	15741	69.6	558.51376753817
0	15761	69.7	559.39772590356
0	15827	69.8	560.2841257402
0	15828	69.9	561.18391379825
0	15957	70	562.07611095514
0	15958	70.1	562.97034374534
0	15959	70.2	563.85936912466
0	16023	70.3	564.76589870253
0	16024	70.4	565.67675505626
0	16186	70.5	566.58640763221
0	16362	70.6	567.49235051181
0	16382	70.7	568.39443423846
0	16448	70.8	569.31002539675
0	16449	70.9	570.22156463944
0	16578	71	571.13319031577
0	16579	71.1	572.0490174501
0	16580	71.2	572.96409053407
0	16644	71.3	573.88672243178
0	16645	71.4	574.80986412561
0	16807	71.5	575.72249875361
0	16983	71.6	576.64546901449
0	17003	71.7	577.56655884666
0	17069	71.8	578.49298495938
0	17070	71.9	579.41555244872
0	17199	72	580.34246818575
0	17200	72.1	581.26932260255
0	17201	72.2	582.19983152553
0	17265	72.3	583.12945956947
0	17266	72.4	584.05658367556
0	17428	72.5	584.98746419107
0	17604	72.6	585.92598926913
0	17624	72.7	586.86899395311
0	17690	72.8	587.80706139812
0	17691	72.9	588.74421550738
0	17820	73	589.67872412554
0	17821	73.1	590.62502736452
0	17822	73.2	591.57605424564
0	17886	73.3	592.51442813928
0	17887	73.4	593.45801608654
0	18049	73.5	594.40885176234
0	18225	73.6	595.3552508494
0	18245	73.7	596.31021183847
0	18311	73.8	597.26769004668
0	18312	73.9	598.22400021088
0	18441	74	599.17941896195
0	18442	74.1	600.12464712973
0	18443	74.2	601.076513461
0	18507	74.3	602.03095230087
0	18508	74.4	602.98868753929
0	18670	74.5	603.94912279308
0	18846	74.6	604.90938335858
0	18866	74.7	605.87439932067
0	18932	74.8	606.83401324454
0	18933	74.9	607.79076251668
0	19058	75	608.74704167707
0	19059	75.1	609.71009353806
0	19060	75.2	610.67270913986
0	19124	75.3	611.63566994161
0	19125	75.4	612.60669653754
0	19283	75.5	613.5689027387
0	19459	75.6	614.53074939064
0	19479	75.7	615.49910750942
0	19545	75.8	616.46852622238
0	19546	75.9	617.4356077583
0	19671	76	618.40217179991
0	19673	76.1	619.36232030488
0	19674	76.2	620.27746880985
0	19738	76.3	621.14761731483
0	19739	76.4	621.9727658198
0	19897	76.5	622.75291432477
0	20073	76.6	623.48806282975
0	20093	76.7	624.17821133472
0	20159	76.8	624.82335983969
0	20160	76.9	625.42350834467
0	20289	77	625.97865684964
0	20290	77.1	626.48880535461
0	20291	77.2	626.95395385959
0	20355	77.3	627.37410236456
0	20356	77.4	627.74925086954
0	20514	77.5	628.07939937451
0	20690	77.6	628.36454787948
0	20710	77.7	628.60469638446
0	20776	77.8	628.79984488943
0	20777	77.9	628.9499933944
0	20906	78	629.05514189938
0	20907	78.1	629.11529040435
0	20908	78.2	629.13043890932
0	20978	78.3	629.13043890932
0	20979	78.4	629.13043890932
0	21208	78.5	629.13043890932
0	21402	78.6	629.13043890932
0	21422	78.7	629.13043890932
0	21494	78.8	629.13043890932
0	21495	78.9	629.13043890932
0	21636	79	629.13043890932
0	21637	79.1	629.13043890932
0	21638	79.2	629.13043890932
0	21708	79.3	629.13043890932
0	21709	79.4	629.13043890932
0	21942	79.5	629.13043890932
0	22140	79.6	629.13043890932
0	22160	79.7	629.13043890932
0	22232	79.8	629.13043890932
0	22233	79.9	629.13043890932
0	22374	80	629.13043890932
0	22375	80.1	629.13043890932
0	22376	80.2	629.13043890932
0	22446	80.3	629.13043890932
0	22447	80.4	629.13043890932
0	22676	80.5	629.13043890932
0	22870	80.6	629.13043890932
0	22890	80.7	629.13043890932
0	22962	80.8	629.13043890932
0	22963	80.9	629.13043890932
0	23096	81	629.13043890932
0	23097	81.1	629.13043890932
0	23098	81.2	629.13043890932
0	23164	81.3	629.13043890932
0	23165	81.4	629.13043890932
0	23386	81.5	629.13043890932
0	23580	81.6	629.13043890932
0	23600	81.7	629.13043890932
0	23672	81.8	629.13043890932
0	23673	81.9	629.13043890932
0	23806	82	629.13043890932
0	23807	82.1	629.13043890932
0	23808	82.2	629.13043890932
0	23874	82.3	629.13043890932
0	23875	82.4	629.13043890932
0	24100	82.5	629.13043890932
0	24298	82.6	629.13043890932
0	24318	82.7	629.13043890932
0	24390	82.8	629.13043890932
0	24391	82.9	629.13043890932
0	24530	83	629.13043890932
0	24531	83.1	629.13043890932
0	24532	83.2	629.13043890932
0	24598	83.3	629.13043890932
0	24599	83.4	629.13043890932
0	24828	83.5	629.13043890932
0	25026	83.6	629.13043890932
0	25050	83.7	629.13043890932
0	25122	83.8	629.13043890932
0	25123	83.9	629.13043890932
0	25258	84	629.13043890932
0	25259	84.1	629.13043890932
0	25260	84.2	629.13043890932
0	25328	84.3	629.13043890932
0	25329	84.4	629.13043890932
0	25558	84.5	629.13043890932
0	25760	84.6	629.13043890932
0	25784	84.7	629.13043890932
0	25856	84.8	629.13043890932
0	25857	84.9	629.13043890932
0	26000	85	629.13043890932
0	26001	85.1	629.13043890932
0	26002	85.2	629.13043890932
0	26076	85.3	629.13043890932
0	26077	85.4	629.13043890932
0	26415	85.5	629.13043890932
0	26635	85.6	629.13043890932
0	26661	85.7	629.13043890932
0	26739	85.8	629.13043890932
0	26740	85.9	629.13043890932
0	26891	86	629.13043890932
0	26892	86.1	629.13043890932
0	26893	86.2	629.13043890932
0	26967	86.3	629.13043890932
0	26968	86.4	629.13043890932
0	27306	86.5	629.13043890932
0	27526	86.6	629.13043890932
0	27552	86.7	629.13043890932
0	27630	86.8	629.13043890932
0	27631	86.9	629.13043890932
0	27786	87	629.13043890932
0	27787	87.1	629.13043890932
0	27788	87.2	629.13043890932
0	27862	87.3	629.13043890932
0	27863	87.4	629.13043890932
0	28209	87.5	629.13043890932
0	28429	87.6	629.13043890932
0	28455	87.7	629.13043890932
0	28533	87.8	629.13043890932
0	28534	87.9	629.13043890932
0	28685	88	629.13043890932
0	28686	88.1	629.13043890932
0	28687	88.2	629.13043890932
0	28761	88.3	629.13043890932
0	28762	88.4	629.13043890932
0	29104	88.5	629.13043890932
0	29324	88.6	629.13043890932
0	29350	88.7	629.13043890932
0	29428	88.8	629.13043890932
0	29429	88.9	629.13043890932
0	29580	89	629.13043890932
0	29581	89.1	629.13043890932
0	29582	89.2	629.13043890932
0	29656	89.3	629.13043890932
0	29657	89.4	629.13043890932
0	29999	89.5	629.13043890932
0	30219	89.6	629.13043890932
0	30245	89.7	629.13043890932
0	30323	89.8	629.13043890932
0	30324	89.9	629.13043890932
0	30475	90	629.13043890932
0	30476	90.1	629.13043890932
0	30477	90.2	629.13043890932
0	30551	90.3	629.13043890932
0	30552	90.4	629.13043890932
0	30906	90.5	629.13043890932
0	31126	90.6	629.13043890932
0	31154	90.7	629.13043890932
0	31232	90.8	629.13043890932
0	31233	90.9	629.13043890932
0	31384	91	629.13043890932
0	31385	91.1	629.13043890932
0	31386	91.2	629.13043890932
0	31460	91.3	629.13043890932
0	31461	91.4	629.13043890932
0	31811	91.5	629.13043890932
0	32033	91.6	629.13043890932
0	32061	91.7	629.13043890932
0	32139	91.8	629.13043890932
0	32140	91.9	629.13043890932
0	32291	92	629.13043890932
0	32292	92.1	629.13043890932
0	32293	92.2	629.13043890932
0	32367	92.3	629.13043890932
0	32368	92.4	629.13043890932
0	32722	92.5	629.13043890932
0	32944	92.6	629.13043890932
0	32974	92.7	629.13043890932
0	33052	92.8	629.13043890932
0	33053	92.9	629.13043890932
0	33204	93	629.13043890932
0	33205	93.1	629.13043890932
0	33206	93.2	629.13043890932
0	33280	93.3	629.13043890932
0	33281	93.4	629.13043890932
0	33631	93.5	629.13043890932
0	33855	93.6	629.13043890932
0	33885	93.7	629.13043890932
0	33965	93.8	629.13043890932
0	33966	93.9	629.13043890932
0	34121	94	629.13043890932
0	34122	94.1	629.13043890932
0	34123	94.2	629.13043890932
0	34260	94.3	629.13043890932
0	34261	94.4	629.13043890932
0	34625	94.5	629.13043890932
0	34863	94.6	629.13043890932
0	34893	94.7	629.13043890932
0	34973	94.8	629.13043890932
0	34974	94.9	629.13043890932
0	35133	95	629.13043890932
0	35134	95.1	629.13043890932
0	35135	95.2	629.13043890932
0	35276	95.3	629.13043890932
0	35277	95.4	629.13043890932
0	35641	95.5	629.13043890932
0	35883	95.6	629.13043890932
0	35913	95.7	629.13043890932
0	35993	95.8	629.13043890932
0	35994	95.9	629.13043890932
0	36153	96	629.13043890932
0	36154	96.1	629.13043890932
0	36155	96.2	629.13043890932
0	36292	96.3	629.13043890932
0	36293	96.4	629.13043890932
0	36657	96.5	629.13043890932
0	36895	96.6	629.13043890932
0	36925	96.7	629.13043890932
0	37005	96.8	629.13043890932
0	37006	96.9	629.13043890932
0	37161	97	629.13043890932
0	37162	97.1	629.13043890932
0	37163	97.2	629.13043890932
0	37300	97.3	629.13043890932
0	37301	97.4	629.13043890932
0	37665	97.5	629.13043890932
0	37903	97.6	629.13043890932
0	37933	97.7	629.13043890932
0	38013	97.8	629.13043890932
0	38014	97.9	629.13043890932
0	38165	98	629.13043890932
0	38166	98.1	629.13043890932
0	38167	98.2	629.13043890932
0	38304	98.3	629.13043890932
0	38305	98.4	629.13043890932
0	38665	98.5	629.13043890932
0	38903	98.6	629.13043890932
0	38933	98.7	629.13043890932
0	39013	98.8	629.13043890932
0	39014	98.9	629.13043890932
0	39165	99	629.13043890932
0	39166	99.1	629.13043890932
0	39167	99.2	629.13043890932
0	39304	99.3	629.13043890932
0	39305	99.4	629.13043890932
0	39667	99.5	629.13043890932
0	39901	99.6	629.13043890932
0	39933	99.7	629.13043890932
0	40013	99.8	629.13043890932
0	40014	99.9	629.13043890932
0	40165	100	629.13043890932
0	40166	100.1	629.13043890932
0	40167	100.2	629.13043890932
0	40304	100.3	629.13043890932
0	40305	100.4	629.13043890932
0	40663	100.5	629.13043890932
0	40897	100.6	629.13043890932
0	40929	100.7	629.13043890932
0	41009	100.8	629.13043890932
0	41010	100.9	629.13043890932
0	41161	101	629.13043890932
0	41162	101.1	629.13043890932
0	41163	101.2	629.13043890932
0	41300	101.3	629.13043890932
0	41301	101.4	629.13043890932
0	41659	101.5	629.13043890932
0	41893	101.6	629.13043890932
0	41925	101.7	629.13043890932
0	42005	101.8	629.13043890932
0	42006	101.9	629.13043890932
0	42157	102	629.13043890932
0	42158	102.1	629.13043890932
0	42159	102.2	629.13043890932
0	42296	102.3	629.13043890932
0	42297	102.4	629.13043890932
0	42655	102.5	629.13043890932
0	42889	102.6	629.13043890932
0	42921	102.7	629.13043890932
0	43001	102.8	629.13043890932
0	43002	102.9	629.13043890932
0	43153	103	629.13043890932
0	43154	103.1	629.13043890932
0	43155	103.2	629.13043890932
0	43292	103.3	629.13043890932
0	43293	103.4	629.13043890932
0	43651	103.5	629.13043890932
0	43885	103.6	629.13043890932
0	43917	103.7	629.13043890932
0	43997	103.8	629.13043890932
0	43998	103.9	629.13043890932
0	44149	104	629.13043890932
0	44150	104.1	629.13043890932
0	44151	104.2	629.13043890932
0	44288	104.3	629.13043890932
0	44289	104.4	629.13043890932
0	44734	104.5	629.13043890932
0	44978	104.6	629.13043890932
0	45012	104.7	629.13043890932
0	45098	104.8	629.13043890932
0	45099	104.9	629.13043890932
0	45262	105	629.13043890932
0	45263	105.1	629.13043890932
0	45264	105.2	629.13043890932
0	45409	105.3	629.13043890932
0	45410	105.4	629.13043890932
0	45855	105.5	629.13043890932
0	46103	105.6	629.13043890932
0	46139	105.7	629.13043890932
0	46221	105.8	629.13043890932
0	46222	105.9	629.13043890932
0	46385	106	629.13043890932
0	46386	106.1	629.13043890932
0	46387	106.2	629.13043890932
0	46532	106.3	629.13043890932
0	46533	106.4	629.13043890932
0	46980	106.5	629.13043890932
0	47224	106.6	629.13043890932
0	47260	106.7	629.13043890932
0	47342	106.8	629.13043890932
0	47343	106.9	629.13043890932
0	47506	107	629.13043890932
0	47507	107.1	629.13043890932
0	47508	107.2	629.13043890932
0	47653	107.3	629.13043890932
0	47654	107.4	629.13043890932
0	48101	107.5	629.13043890932
0	48345	107.6	629.13043890932
0	48381	107.7	629.13043890932
0	48463	107.8	629.13043890932
0	48464	107.9	629.13043890932
0	48627	108	629.13043890932
0	48628	108.1	629.13043890932
0	48629	108.2	629.13043890932
0	48774	108.3	629.13043890932
0	48775	108.4	629.13043890932
0	49222	108.5	629.13043890932
0	49466	108.6	629.13043890932
0	49502	108.7	629.13043890932
0	49584	108.8	629.13043890932
0	49585	108.9	629.13043890932
0	49748	109	629.13043890932
0	49749	109.1	629.13043890932
0	49750	109.2	629.13043890932
0	49899	109.3	629.13043890932
0	49900	109.4	629.13043890932
0	50343	109.5	629.13043890932
0	50587	109.6	629.13043890932
0	50623	109.7	629.13043890932
0	50701	109.8	629.13043890932
0	50702	109.9	629.13043890932
0	50865	110	629.13043890932
0	50866	110.1	629.13043890932
0	50867	110.2	629.13043890932
0	51012	110.3	629.13043890932
0	51013	110.4	629.13043890932
0	51456	110.5	629.13043890932
0	51704	110.6	629.13043890932
0	51740	110.7	629.13043890932
0	51820	110.8	629.13043890932
0	51878	110.9	629.13043890932
0	52045	111	629.13043890932
0	52046	111.1	629.13043890932
0	52047	111.2	629.13043890932
0	52200	111.3	629.13043890932
0	52201	111.4	629.13043890932
0	52660	111.5	629.13043890932
0	52918	111.6	629.13043890932
0	52954	111.7	629.13043890932
0	53034	111.8	629.13043890932
0	53092	111.9	629.13043890932
0	53255	112	629.13043890932
0	53256	112.1	629.13043890932
0	53257	112.2	629.13043890932
0	53406	112.3	629.13043890932
0	53407	112.4	629.13043890932
0	53866	112.5	629.13043890932
0	54120	112.6	629.13043890932
0	54156	112.7	629.13043890932
0	54232	112.8	629.13043890932
0	54290	112.9	629.13043890932
0	54453	113	629.13043890932
0	54454	113.1	629.13043890932
0	54455	113.2	629.13043890932
0	54604	113.3	629.13043890932
0	54605	113.4	629.13043890932
0	55060	113.5	629.13043890932
0	55302	113.6	629.13043890932
0	55338	113.7	629.13043890932
0	55410	113.8	629.13043890932
0	55472	113.9	629.13043890932
0	55627	114	629.13043890932
0	55628	114.1	629.13043890932
0	55629	114.2	629.13043890932
0	55782	114.3	629.13043890932
0	55783	114.4	629.13043890932
0	56238	114.5	629.13043890932
0	56480	114.6	629.13043890932
0	56516	114.7	629.13043890932
0	56588	114.8	629.13043890932
0	56646	114.9	629.13043890932
0	56801	115	629.13043890932
0	56802	115.1	629.13043890932
0	56803	115.2	629.13043890932
0	56948	115.3	629.13043890932
0	56949	115.4	629.13043890932
0	57404	115.5	629.13043890932
0	57646	115.6	629.13043890932
0	57682	115.7	629.13043890932
0	57746	115.8	629.13043890932
0	57808	115.9	629.13043890932
0	57959	116	629.13043890932
0	57960	116.1	629.13043890932
0	57961	116.2	629.13043890932
0	58110	116.3	629.13043890932
0	58111	116.4	629.13043890932
0	58566	116.5	629.13043890932
0	58808	116.6	629.13043890932
0	58844	116.7	629.13043890932
0	58908	116.8	629.13043890932
0	58974	116.9	629.13043890932
0	59129	117	629.13043890932
0	59130	117.1	629.13043890932
0	59131	117.2	629.13043890932
0	59280	117.3	629.13043890932
0	59281	117.4	629.13043890932
0	59736	117.5	629.13043890932
0	59978	117.6	629.13043890932
0	60014	117.7	629.13043890932
0	60078	117.8	629.13043890932
0	60144	117.9	629.13043890932
0	60291	118	629.13043890932
0	60292	118.1	629.13043890932
0	60293	118.2	629.13043890932
0	60438	118.3	629.13043890932
0	60439	118.4	629.13043890932
0	60894	118.5	629.13043890932
0	61136	118.6	629.13043890932
0	61172	118.7	629.13043890932
0	61236	118.8	629.13043890932
0	61302	118.9	629.13043890932
0	61445	119	629.13043890932
0	61446	119.1	629.13043890932
0	61447	119.2	629.13043890932
0	61596	119.3	629.13043890932
0	61597	119.4	629.13043890932
0	62064	119.5	629.13043890932
0	62320	119.6	629.13043890932
0	62356	119.7	629.13043890932
0	62422	119.8	629.13043890932
0	62494	119.9	629.13043890932
0	62641	120	629.13043890932
0	62705	120.1	629.13043890932
0	62706	120.2	629.13043890932
0	62859	120.3	629.13043890932
0	62860	120.4	629.13043890932
0	63327	120.5	629.13043890932
0	63583	120.6	629.13043890932
0	63619	120.7	629.13043890932
0	63685	120.8	629.13043890932
0	63757	120.9	629.13043890932
0	63904	121	629.13043890932
0	63968	121.1	629.13043890932
0	63969	121.2	629.13043890932
0	64122	121.3	629.13043890932
0	64123	121.4	629.13043890932
0	64590	121.5	629.13043890932
0	64850	121.6	629.13043890932
0	64886	121.7	629.13043890932
0	64952	121.8	629.13043890932
0	65024	121.9	629.13043890932
0	65171	122	629.13043890932
0	65235	122.1	629.13043890932
0	65236	122.2	629.13043890932
0	65389	122.3	629.13043890932
0	65390	122.4	629.13043890932
0	65857	122.5	629.13043890932
0	66113	122.6	629.13043890932
0	66149	122.7	629.13043890932
0	66215	122.8	629.13043890932
0	66287	122.9	629.13043890932
0	66434	123	629.13043890932
0	66502	123.1	629.13043890932
0	66503	123.2	629.13043890932
0	66656	123.3	629.13043890932
0	66657	123.4	629.13043890932
0	67124	123.5	629.13043890932
0	67380	123.6	629.13043890932
0	67416	123.7	629.13043890932
0	67478	123.8	629.13043890932
0	67550	123.9	629.13043890932
0	67697	124	629.13043890932
0	67761	124.1	629.13043890932
0	67762	124.2	629.13043890932
0	67915	124.3	629.13043890932
0	67916	124.4	629.13043890932
0	68383	124.5	629.13043890932
0	68635	124.6	629.13043890932
0	68671	124.7	629.13043890932
0	68733	124.8	629.13043890932
0	68805	124.9	629.13043890932
0	68956	125	629.13043890932
0	69020	125.1	629.13043890932
0	69021	125.2	629.13043890932
0	69174	125.3	629.13043890932
0	69175	125.4	629.13043890932
0	69634	125.5	629.13043890932
0	69890	125.6	629.13043890932
0	69926	125.7	629.13043890932
0	69988	125.8	629.13043890932
0	70060	125.9	629.13043890932
0	70207	126	629.13043890932
0	70365	126.1	629.13043890932
0	70366	126.2	629.15616281185
0	70527	126.3	629.20588167536
0	70528	126.4	629.28095553161
0	71015	126.5	629.37853162842
0	71281	126.6	629.49662509131
0	71319	126.7	629.63507595228
0	71387	126.8	629.79518983414
0	71461	126.9	629.97341119527
0	71624	127	630.16829585473
0	71781	127.1	630.38091807983
0	71782	127.2	630.60880105805
0	71943	127.3	630.85296455246
0	71944	127.4	631.11773644429
0	72431	127.5	631.3968317131
0	72701	127.6	631.6917056226
0	72739	127.7	632.01045976643
0	72807	127.8	632.35180599531
0	72881	127.9	632.71590194629
0	73040	128	633.09627480116
0	73201	128.1	633.49610008342
0	73202	128.2	633.92001429436
0	73363	128.3	634.36772710915
0	73364	128.4	634.83889740524
0	73851	128.5	635.3349880079
0	74117	128.6	635.85618887583
0	74155	128.7	636.40072980077
0	74223	128.8	636.96778710775
0	74297	128.9	637.56068160761
0	74456	129	638.16736718473
0	74613	129.1	638.79518303327
0	74614	129.2	639.44829823316
0	74779	129.3	640.12148719401
0	74780	129.4	640.81763894809
0	75263	129.5	641.52983099279
0	75529	129.6	642.25818078267
0	75567	129.7	643.00814029983
0	75635	129.8	643.77780979279
0	75709	129.9	644.57316960002
0	75872	130	645.39223419535
0	76029	130.1	646.23366487723
0	76030	130.2	647.09753937468
0	76191	130.3	647.98117492328
0	76192	130.4	648.88926601571
0	76663	130.5	649.8174045279
0	76921	130.6	650.76578233884
0	76959	130.7	651.73786082718
0	77027	130.8	652.72878996169
0	77101	130.9	653.73851961571
0	77260	131	654.76322908775
0	77421	131.1	655.79919782459
0	77422	131.2	656.83644280475
0	77583	131.3	657.87060646769
0	77584	131.4	658.90677492945
0	78055	131.5	659.94702639014
0	78309	131.6	660.98165857486
0	78347	131.7	662.01670442338
0	78415	131.8	663.05467741646
0	78489	131.9	664.08452735731
0	78648	132	665.11698364884
0	78809	132.1	666.15109039776
0	78810	132.2	667.19051970004
0	78971	132.3	668.23025925958
0	78972	132.4	669.26256439936
0	79443	132.5	670.30220663873
0	79697	132.6	671.3347675606
0	79735	132.7	672.37503202226
0	79803	132.8	673.41667656856
0	79877	132.9	674.44623716515
0	80032	133	675.48759424417
0	80189	133.1	676.52397364315
0	80190	133.2	677.55918125932
0	80355	133.3	678.59437050659
0	80356	133.4	679.63404117971
0	80855	133.5	680.66889966333
0	81127	133.6	681.7068438475
0	81167	133.7	682.73975187156
0	81237	133.8	683.77047268351
0	81313	133.9	684.80739493505
0	81476	134	685.84173618182
0	81637	134.1	686.88317696512
0	81638	134.2	687.9222443847
0	81904	134.3	688.95916057258
0	81905	134.4	689.99452132363
0	82404	134.5	691.02562478393
0	82676	134.6	692.05523283112
0	82716	134.7	693.09065714395
0	82782	134.8	694.12373107642
0	82858	134.9	695.16548788408
0	83025	135	696.19718709778
0	83186	135.1	697.23586981081
0	83187	135.2	698.26561147122
0	83453	135.3	699.29474193373
0	83454	135.4	700.32917412429
0	83949	135.5	701.36472202385
0	84221	135.6	702.40634889263
0	84261	135.7	703.43861909001
0	84327	135.8	704.46860135749
0	84403	135.9	705.50347432531
0	84566	136	706.54492272749
0	84727	136.1	707.58300852882
0	84728	136.2	708.62254140063
1	21	1.1	28.49067468472
1	22	1.2	28.49067468472
1	23	1.3	28.490675322399
1	24	1.4	28.490676592405
1	34	1.5	28.490678449461
1	35	1.6	28.490680904371
1	45	1.7	28.490683949764
1	46	1.8	28.49068762306
1	47	1.9	28.490691797741
1	48	2	28.4906964377
1	49	2.1	28.490701573179
1	50	2.2	28.490707077667
1	51	2.3	28.490713178775
1	52	2.4	28.490719792222
1	62	2.5	28.490727000531
1	63	2.6	28.490734752576
1	73	2.7	28.490743031708
1	74	2.8	28.490751755818
1	75	2.9	28.490760810647
1	76	3	28.490770493702
1	77	3.1	28.490780810323
1	78	3.2	28.49079165703
1	79	3.3	28.49080304722
1	80	3.4	28.490815013579
1	90	3.5	28.490827540415
1	91	3.6	28.490840415839
1	101	3.7	28.490853834557
1	102	3.8	28.490867690392
1	103	3.9	28.490882133263
1	104	4	28.490897169068
1	105	4.1	28.490912632087
1	106	4.2	28.490928648124
1	107	4.3	28.490945124224
1	108	4.4	28.490962040108
1	118	4.5	28.490979457746
1	119	4.6	28.490997484066
1	129	4.7	28.491016028497
1	130	4.8	28.491035117951
1	131	4.9	28.491054619292
1	132	5	28.491074692373
1	133	5.1	28.491095215747
1	134	5.2	28.491116153976
1	135	5.3	28.491137538743
1	136	5.4	28.4911595365
1	146	5.5	28.491181989567
1	147	5.6	28.491204775776
1	157	5.7	28.491227918526
1	158	5.8	28.491251389546
1	159	5.9	28.491275279357
1	160	6	28.49129970156
1	161	6.1	28.491324721701
1	162	6.2	28.491350223826
1	163	6.3	28.491375849362
1	164	6.4	28.491401703675
1	174	6.5	28.491427377865
1	175	6.6	28.491453261059
1	185	6.7	28.491478884076
1	186	6.8	28.491504478557
1	187	6.9	28.491530209742
1	188	7	28.491556051285
1	189	7.1	28.491581878472
1	190	7.2	28.491607581476
1	191	7.3	28.491633427801
1	192	7.4	28.491659101452
1	202	7.5	28.49168480261
1	203	7.6	28.491710459542
1	213	7.7	28.49173623041
1	214	7.8	28.491762059269
1	215	7.9	28.491787800334
1	216	8	28.491813672313
1	217	8.1	28.491839471107
1	218	8.2	28.491865312614
1	219	8.3	28.491891057512
1	220	8.4	28.491916805351
1	230	8.5	28.491942630826
1	231	8.6	28.491968425456
1	241	8.7	28.491994187526
1	242	8.8	28.49201993087
1	243	8.9	28.492045729051
1	244	9	28.492071578929
1	245	9.1	28.492097418222
1	246	9.2	28.492123228293
1	247	9.3	28.492148856278
1	248	9.4	28.492174522503
1	258	9.5	28.492200351781
1	259	9.6	28.492226183739
1	269	9.7	28.492251903741
1	270	9.8	28.492277575971
1	271	9.9	28.492303221045
1	272	10	28.492328836609
1	273	10.1	28.492354507207
1	274	10.2	28.492380156874
1	275	10.3	28.492405738136
1	276	10.4	28.49243150504
1	286	10.5	28.492457365593
1	287	10.6	28.492483154109
1	297	10.7	28.492508924565
1	298	10.8	28.492534718992
1	299	10.9	28.492560520117
1	300	11	28.492586157797
1	301	11.1	28.492611934865
1	302	11.2	28.492637680448
1	303	11.3	28.492663437166
1	304	11.4	28.49268917213
1	314	11.5	28.492714797903
1	315	11.6	28.492740694312
1	325	11.7	28.492766294919
1	326	11.8	28.492791909242
1	327	11.9	28.492817655209
1	328	12	28.492843508275
1	329	12.1	28.492869360313
1	330	12.2	28.492895230041
1	331	12.3	28.492920846168
1	332	12.4	28.492946558237
1	342	12.5	28.49297220996
1	343	12.6	28.492997946835
1	353	12.7	28.493023645502
1	354	12.8	28.493049517576
1	355	12.9	28.49307511444
1	356	13	28.493100914788
1	357	13.1	28.49312664248
1	358	13.2	28.493152345185
1	359	13.3	28.493178216765
1	360	13.4	28.493203950523
1	370	13.5	28.493229662607
1	371	13.6	28.493255244965
1	381	13.7	28.493281044317
1	382	13.8	28.493306824918
1	383	13.9	28.493332503585
1	384	14	28.493358127205
1	385	14.1	28.493383788213
1	386	14.2	28.493409559304
1	387	14.3	28.493435375728
1	388	14.4	28.493461236151
1	398	14.5	28.493486847627
1	399	14.6	28.493512710391
1	409	14.7	28.49353850511
1	410	14.8	28.49356430893
1	411	14.9	28.493590029024
1	412	15	28.493615815867
1	413	15.1	28.493641486669
1	414	15.2	28.493667241609
1	415	15.3	28.493692830877
1	416	15.4	28.493718682441
1	426	15.5	28.493744266701
1	427	15.6	28.493769879301
1	437	15.7	28.493795770271
1	438	15.8	28.493821615341
1	439	15.9	28.4938473493
1	440	16	28.493872943592
1	441	16.1	28.493898665948
1	442	16.2	28.493924360292
1	443	16.3	28.493950079513
1	444	16.4	28.493975841565
1	454	16.5	28.494001517867
1	455	16.6	28.494027183424
1	465	16.7	28.49405276887
1	466	16.8	28.494078526024
1	467	16.9	28.49410412845
1	468	17	28.494129767344
1	469	17.1	28.494155380196
1	470	17.2	28.494181103752
1	471	17.3	28.494206964221
1	472	17.4	28.494232826247
1	482	17.5	28.494258543943
1	483	17.6	28.494284366568
1	493	17.7	28.49431006399
1	494	17.8	28.494335823248
1	495	17.9	28.49436158231
1	496	18	28.494387378271
1	497	18.1	28.494413276133
1	498	18.2	28.494439110932
1	499	18.3	28.49446480592
1	500	18.4	28.49449051415
1	510	18.5	28.494516201398
1	511	18.6	28.494542088799
1	521	18.7	28.494567771193
1	522	18.8	28.494593634063
1	523	18.9	28.494619526595
1	524	19	28.494645368164
1	525	19.1	28.494670965118
1	526	19.2	28.494696576504
1	527	19.3	28.494722414955
1	528	19.4	28.494748114428
1	538	19.5	28.494773724269
1	539	19.6	28.494799459541
1	549	19.7	28.494825202788
1	550	19.8	28.494851062312
1	551	19.9	28.494876954751
1	552	20	28.494902558967
1	553	20.1	28.494928189251
1	554	20.2	28.494953907337
1	555	20.3	28.494979591786
1	556	20.4	28.49500520333
1	566	20.5	28.495030845567
1	567	20.6	28.495056496091
1	577	20.7	28.495082222028
1	578	20.8	28.495108074947
1	579	20.9	28.49513395668
1	580	21	28.495159748884
1	581	21.1	28.495185625673
1	582	21.2	28.495211412056
1	583	21.3	28.495237249325
1	584	21.4	28.495262941312
1	594	21.5	28.495288776062
1	595	21.6	28.495314547796
1	605	21.7	28.495340250562
1	606	21.8	28.495365834484
1	607	21.9	28.495391463782
1	608	22	28.495417129974
1	609	22.1	28.495442713331
1	610	22.2	28.495468397123
1	638	22.3	28.495494166025
1	639	22.4	28.495519892547
1	694	22.5	28.495545491104
1	722	22.6	28.495570892778
1	732	22.7	28.495595275684
1	733	22.8	28.495618868666
1	734	22.9	28.49564184315
1	735	23	28.495664001815
1	736	23.1	28.49568571261
1	737	23.2	28.495706785853
1	765	23.3	28.495727131386
1	766	23.4	28.495746736893
1	821	23.5	28.495765779102
1	849	23.6	28.49578400003
1	859	23.7	28.495801937833
1	860	23.8	28.495819082491
1	861	23.9	28.495835790829
1	862	24	28.495851803998
1	863	24.1	28.495867573744
1	864	24.2	28.495882756868
1	892	24.3	28.495897367539
1	893	24.4	28.495911750745
1	948	24.5	28.495925752876
1	976	24.6	28.495939133197
1	986	24.7	28.495952216379
1	987	24.8	28.495965139704
1	988	24.9	28.495977570894
1	989	25	28.495989814024
1	990	25.1	28.496001620597
1	991	25.2	28.49601307376
1	1019	25.3	28.496024336297
1	1020	25.4	28.496035377131
1	1075	25.5	28.49604633733
1	1103	25.6	28.496056990437
1	1113	25.7	28.496067588823
1	1114	25.8	28.496078085003
1	1115	25.9	28.496088495013
1	1116	26	28.496098783981
1	1117	26.1	28.496108848784
1	1118	26.2	28.496119080475
1	1146	26.3	28.496129223816
1	1147	26.4	28.496139182609
1	1202	26.5	28.496149118317
1	1230	26.6	28.496159235794
1	1240	26.7	28.496169346961
1	1241	26.8	28.496179495649
1	1242	26.9	28.496189815326
1	1243	27	28.496200099123
1	1244	27.1	28.496210225382
1	1245	27.2	28.496220501234
1	1273	27.3	28.49623089283
1	1274	27.4	28.496241526144
1	1329	27.5	28.49625226389
1	1357	27.6	28.49626305472
1	1367	27.7	28.496273712348
1	1368	27.8	28.496284599103
1	1369	27.9	28.49629557358
1	1370	28	28.496306774209
1	1371	28.1	28.496318020665
1	1372	28.2	28.496329370711
1	1400	28.3	28.496341024355
1	1401	28.4	28.496352816544
1	1456	28.5	28.496364630282
1	1484	28.6	28.496376531629
1	1496	28.7	28.496388528495
1	1497	28.8	28.49640095161
1	1498	28.9	28.496413496358
1	1499	29	28.496426173728
1	1500	29.1	28.496439051888
1	1501	29.2	28.496452176464
1	1529	29.3	28.496465294178
1	1530	29.4	28.496478537173
1	1587	29.5	28.49649208015
1	1615	29.6	28.496505841003
1	1627	29.7	28.496519823801
1	1628	29.8	28.496533983765
1	1629	29.9	28.496548275821
1	1630	30	28.49656272908
1	1631	30.1	28.496577577572
1	1632	30.2	28.49659238918
1	1666	30.3	28.496607516571
1	1667	30.4	28.496622838324
1	1736	30.5	28.496638169783
1	1770	30.6	28.496653910682
1	1782	30.7	28.496669808363
1	1783	30.8	28.496685721305
1	1784	30.9	28.496701855228
1	1818	31	28.496718228204
1	1819	31.1	28.496734872947
1	1820	31.2	28.496751798802
1	1854	31.3	28.496768906077
1	1855	31.4	28.496786252727
1	1924	31.5	28.496803683424
1	1958	31.6	28.496821253081
1	1970	31.7	28.49683898953
1	1971	31.8	28.496856839761
1	1972	31.9	28.496875077055
1	2006	32	28.496893607017
1	2007	32.1	28.496912393216
1	2008	32.2	28.496931140987
1	2042	32.3	28.496950075835
1	2043	32.4	28.496969400448
1	2114	32.5	28.4969889775
1	2148	32.6	28.497008837388
1	2162	32.7	28.49702888916
1	2163	32.8	28.49704919356
1	2164	32.9	28.497069743856
1	2198	33	28.497090505188
1	2199	33.1	28.497111131023
1	2200	33.2	28.49713225062
1	2234	33.3	28.497153296527
1	2235	33.4	28.497174567734
1	2306	33.5	28.497196045761
1	2340	33.6	28.497217989448
1	2354	33.7	28.497239997769
1	2355	33.8	28.497261440889
1	2356	33.9	28.497282499171
1	2390	34	28.497303076677
1	2391	34.1	28.497323405896
1	2392	34.2	28.497343166367
1	2426	34.3	28.497362436109
1	2427	34.4	28.497381546263
1	2498	34.5	28.497400205649
1	2532	34.6	28.497418542684
1	2546	34.7	28.497436845645
1	2547	34.8	28.497454828421
1	2548	34.9	28.497472439581
1	2582	35	28.497489864664
1	2583	35.1	28.497506833473
1	2584	35.2	28.49752380424
1	2618	35.3	28.497540442074
1	2619	35.4	28.497556984404
1	2690	35.5	28.497573233892
1	2724	35.6	28.497589373774
1	2738	35.7	28.497605360563
1	2739	35.8	28.497621268403
1	2740	35.9	28.497637212616
1	2774	36	28.497652884167
1	2775	36.1	28.497668471289
1	2776	36.2	28.497683880029
1	2810	36.3	28.497699291628
1	2811	36.4	28.497714185942
1	2882	36.5	28.497729021251
1	2916	36.6	28.497743563238
1	2930	36.7	28.497757645692
1	2931	36.8	28.497771624655
1	2932	36.9	28.497785313612
1	2966	37	28.497798664194
1	2967	37.1	28.497811705106
1	2968	37.2	28.497824499247
1	3008	37.3	28.497837189972
1	3009	37.4	28.497849768679
1	3131	37.5	28.497862062582
1	3171	37.6	28.497873922615
1	3185	37.7	28.497885731141
1	3186	37.8	28.497897227678
1	3187	37.9	28.497908487649
1	3227	38	28.497919637635
1	3228	38.1	28.497930713989
1	3229	38.2	28.497941507658
1	3269	38.3	28.497952082503
1	3270	38.4	28.497962303489
1	3392	38.5	28.497972461367
1	3432	38.6	28.497982540793
1	3446	38.7	28.497992397437
1	3447	38.8	28.498001938601
1	3448	38.9	28.498011481881
1	3488	39	28.49802077143
1	3489	39.1	28.498030105746
1	3490	39.2	28.498039062648
1	3530	39.3	28.498048116652
1	3531	39.4	28.49805717031
1	3653	39.5	28.498065939607
1	3693	39.6	28.498074494614
1	3707	39.7	28.498083097993
1	3708	39.8	28.498091741071
1	3709	39.9	28.498100345929
1	3749	40	28.498108905266
1	3750	40.1	28.498117409429
1	3751	40.2	28.498125889648
1	3791	40.3	28.498134398708
1	3792	40.4	28.498142823249
1	3914	40.5	28.498151056967
1	3954	40.6	28.498159465612
1	3968	40.7	28.498167815474
1	3969	40.8	28.498176352771
1	3970	40.9	28.498184724552
1	4010	41	28.498193240205
1	4011	41.1	28.49820178792
1	4012	41.2	28.498210245439
1	4052	41.3	28.498218948376
1	4053	41.4	28.498227734094
1	4175	41.5	28.498236338055
1	4215	41.6	28.498245338406
1	4229	41.7	28.498254379914
1	4230	41.8	28.498263314123
1	4231	41.9	28.498272507243
1	4271	42	28.49828174748
1	4272	42.1	28.498291010301
1	4273	42.2	28.498300324844
1	4313	42.3	28.498309924438
1	4314	42.4	28.498319460971
1	4436	42.5	28.498329404264
1	4476	42.6	28.498339362757
1	4490	42.7	28.498349489147
1	4491	42.8	28.498359648998
1	4492	42.9	28.498370059561
1	4532	43	28.498380697923
1	4533	43.1	28.498391385501
1	4534	43.2	28.498402126784
1	4574	43.3	28.498412998272
1	4575	43.4	28.498423975642
1	4697	43.5	28.498435307528
1	4737	43.6	28.498446543136
1	4751	43.7	28.49845808884
1	4752	43.8	28.49846998012
1	4753	43.9	28.498481955758
1	4793	44	28.498493952479
1	4794	44.1	28.498506268771
1	4795	44.2	28.498518704251
1	4835	44.3	28.498531207984
1	4836	44.4	28.498543875847
1	4958	44.5	28.498556646973
1	4998	44.6	28.498569779221
1	5012	44.7	28.498582943313
1	5013	44.8	28.498596448322
1	5014	44.9	28.498610145314
1	5054	45	28.498623901048
1	5055	45.1	28.498637824563
1	5056	45.2	28.498651982868
1	5096	45.3	28.498666350659
1	5097	45.4	28.498680963037
1	5219	45.5	28.498695872126
1	5259	45.6	28.498710909041
1	5273	45.7	28.498725995353
1	5274	45.8	28.498741307044
1	5275	45.9	28.498756945751
1	5315	46	28.498772769234
1	5316	46.1	28.49878871081
1	5317	46.2	28.498804880477
1	5363	46.3	28.498821158407
1	5364	46.4	28.498837617294
1	5504	46.5	28.498854364695
1	5550	46.6	28.49887114494
1	5564	46.7	28.498888158917
1	5565	46.8	28.498905519694
1	5566	46.9	28.498922851341
1	5657	47	28.498940641233
1	5658	47.1	28.498958450156
1	5659	47.2	28.498976584577
1	5705	47.3	28.49899492729
1	5706	47.4	28.499013225905
1	5846	47.5	28.499031812753
1	5892	47.6	28.499050708262
1	5906	47.7	28.499069708834
1	5907	47.8	28.499088797946
1	5908	47.9	28.499108184059
1	5999	48	28.499127745762
1	6000	48.1	28.499147477823
1	6001	48.2	28.49916733052
1	6047	48.3	28.49918758677
1	6048	48.4	28.499207988648
1	6188	48.5	28.499228684626
1	6234	48.6	28.499249383088
1	6248	48.7	28.499270210619
1	6249	48.8	28.499291300829
1	6250	48.9	28.499312732087
1	6341	49	28.499334176406
1	6342	49.1	28.499355847334
1	6343	49.2	28.499377954419
1	6389	49.3	28.499400111166
1	6390	49.4	28.49942234074
1	6530	49.5	28.499444830404
1	6576	49.6	28.499467273947
1	6590	49.7	28.499490168072
1	6591	49.8	28.499513279291
1	6592	49.9	28.499536295288
1	6683	50	28.499559741771
1	6684	50.1	28.499583374863
1	6685	50.2	28.499606996261
1	6731	50.3	28.499630934045
1	6732	50.4	28.499655177083
1	6872	50.5	28.499679484879
1	6918	50.6	28.499703626233
1	6932	50.7	28.49972752722
1	6933	50.8	28.499751262745
1	6934	50.9	28.499774750544
1	7025	51	28.499798060977
1	7026	51.1	28.499820952105
1	7027	51.2	28.499843741255
1	7073	51.3	28.499866646817
1	7074	51.4	28.499889096273
1	7214	51.5	28.499911443881
1	7260	51.6	28.499933739665
1	7274	51.7	28.499956061858
1	7275	51.8	28.499978182927
1	7276	51.9	28.500000313227
1	7367	52	28.500022064981
1	7368	52.1	28.500043722119
1	7369	52.2	28.500065483759
1	7415	52.3	28.500086957825
1	7416	52.4	28.500108647496
1	7556	52.5	28.500130289364
1	7602	52.6	28.500151845547
1	7616	52.7	28.500173406025
1	7617	52.8	28.500194606961
1	7618	52.9	28.500215565363
1	7709	53	28.500236663202
1	7710	53.1	28.500257624064
1	7711	53.2	28.500278306202
1	7763	53.3	28.500298786638
1	7764	53.4	28.500319028229
1	7922	53.5	28.500339093103
1	7974	53.6	28.500359213244
1	7988	53.7	28.50037924306
1	8040	53.8	28.500398948062
1	8041	53.9	28.500418557747
1	8144	54	28.500438038213
1	8145	54.1	28.500457296459
1	8146	54.2	28.500476485681
1	8198	54.3	28.500495461791
1	8199	54.4	28.500514211702
1	8357	54.5	28.500533005476
1	8409	54.6	28.500551841114
1	8425	54.7	28.500570527218
1	8477	54.8	28.500588835618
1	8478	54.9	28.500607177215
1	8583	55	28.500625391773
1	8584	55.1	28.50064344413
1	8585	55.2	28.500661536892
1	8637	55.3	28.500679526136
1	8638	55.4	28.500697435256
1	8796	55.5	28.500715290629
1	8848	55.6	28.500733250151
1	8864	55.7	28.500751080671
1	8916	55.8	28.500768687687
1	8917	55.9	28.500786363206
1	9022	56	28.500804112784
1	9023	56.1	28.500821592213
1	9024	56.2	28.500839245216
1	9076	56.3	28.500856720763
1	9077	56.4	28.500874032657
1	9235	56.5	28.500891529478
1	9287	56.6	28.500909071441
1	9303	56.7	28.500926481069
1	9355	56.8	28.500943711536
1	9356	56.9	28.500960934386
1	9461	57	28.50097803834
1	9462	57.1	28.500995204787
1	9463	57.2	28.501012452674
1	9515	57.3	28.501029543741
1	9516	57.4	28.501046453885
1	9674	57.5	28.501063380395
1	9726	57.6	28.501080227493
1	9742	57.7	28.501097073954
1	9794	57.8	28.501113909756
1	9795	57.9	28.501130853219
1	9900	58	28.501147701796
1	9901	58.1	28.501164275271
1	9902	58.2	28.501180899987
1	9954	58.3	28.501197578183
1	9955	58.4	28.501214193939
1	10113	58.5	28.501230744517
1	10165	58.6	28.501247324011
1	10181	58.7	28.501263716531
1	10233	58.8	28.501280166666
1	10234	58.9	28.501296661088
1	10339	59	28.501312956814
1	10340	59.1	28.501329354193
1	10341	59.2	28.501345636995
1	10393	59.3	28.501361920208
1	10394	59.4	28.501378245783
1	10544	59.5	28.501394565428
1	10596	59.6	28.501410793864
1	10614	59.7	28.501427119433
1	10668	59.8	28.501443424234
1	10669	59.9	28.501459880196
1	10774	60	28.501476081005
1	10775	60.1	28.501492507764
1	10776	60.2	28.501508688622
1	10828	60.3	28.501525004291
1	10829	60.4	28.501541297698
1	10979	60.5	28.501557521745
1	11031	60.6	28.501573829078
1	11049	60.7	28.501590092983
1	11103	60.8	28.501606471561
1	11104	60.9	28.501622787713
1	11209	61	28.501639094954
1	11210	61.1	28.501655384052
1	11211	61.2	28.501671521464
1	11263	61.3	28.501687769521
1	11264	61.4	28.501704214862
1	11414	61.5	28.501720615537
1	11466	61.6	28.50173690188
1	11484	61.7	28.501753192231
1	11538	61.8	28.501769525142
1	11539	61.9	28.501786039682
1	11644	62	28.50180256697
1	11645	62.1	28.501819006878
1	11646	62.2	28.501835554759
1	11704	62.3	28.501851985845
1	11705	62.4	28.501868547542
1	11865	62.5	28.501885267265
1	11972	62.6	28.501901859214
1	11990	62.7	28.50191867534
1	12050	62.8	28.501935337096
1	12051	62.9	28.501952242605
1	12168	63	28.501969324172
1	12169	63.1	28.501986195411
1	12170	63.2	28.502003222013
1	12228	63.3	28.50202044929
1	12229	63.4	28.502037416641
1	12393	63.5	28.502054620007
1	12500	63.6	28.502071759978
1	12518	63.7	28.502089005562
1	12578	63.8	28.502106186424
1	12579	63.9	28.502123726491
1	12696	64	28.502141198238
1	12697	64.1	28.502158691581
1	12698	64.2	28.502176359119
1	12756	64.3	28.502193880436
1	12757	64.4	28.502211771045
1	12917	64.5	28.502229528593
1	13030	64.6	28.502247633444
1	13050	64.7	28.50226552116
1	13110	64.8	28.502283785886
1	13111	64.9	28.502302112001
1	13228	65	28.502320324701
1	13229	65.1	28.50233862107
1	13230	65.2	28.502357137126
1	13288	65.3	28.50237575698
1	13289	65.4	28.502394433589
1	13449	65.5	28.502413258499
1	13558	65.6	28.502432052566
1	13578	65.7	28.502451154183
1	13638	65.8	28.502470284558
1	13639	65.9	28.502489428639
1	13756	66	28.502508644252
1	13757	66.1	28.502528234625
1	13758	66.2	28.50254790462
1	13816	66.3	28.502567603787
1	13817	66.4	28.502587343605
1	13977	66.5	28.502607362939
1	14090	66.6	28.502627278612
1	14110	66.7	28.502647274491
1	14170	66.8	28.502667363606
1	14171	66.9	28.502687478978
1	14288	67	28.50270760478
1	14289	67.1	28.502728011532
1	14290	67.2	28.502748622931
1	14348	67.3	28.502769219761
1	14349	67.4	28.502789800099
1	14509	67.5	28.502810334411
1	14618	67.6	28.502831070176
1	14638	67.7	28.502851993586
1	14698	67.8	28.502872754221
1	14699	67.9	28.502893804071
1	14816	68	28.502914717732
1	14817	68.1	28.502935943068
1	14818	68.2	28.502957206312
1	14876	68.3	28.50297845776
1	14877	68.4	28.502999715774
1	15029	68.5	28.503021181139
1	15138	68.6	28.503042614891
1	15158	68.7	28.503064257717
1	15218	68.8	28.503085750734
1	15219	68.9	28.503107423082
1	15336	69	28.503129055026
1	15337	69.1	28.503150805225
1	15338	69.2	28.50317263292
1	15402	69.3	28.503194708685
1	15403	69.4	28.503216439695
1	15565	69.5	28.503238525083
1	15741	69.6	28.503260436391
1	15761	69.7	28.503282407096
1	15827	69.8	28.503304438484
1	15828	69.9	28.503326802635
1	15957	70	28.503348978114
1	15958	70.1	28.503371204189
1	15959	70.2	28.503393300834
1	16023	70.3	28.503415832545
1	16024	70.4	28.503438471797
1	16186	70.5	28.50346108113
1	16362	70.6	28.503483598258
1	16382	70.7	28.503506019467
1	16448	70.8	28.503528776403
1	16449	70.9	28.503551432628
1	16578	71	28.503574091002
1	16579	71.1	28.503596853802
1	16580	71.2	28.503619597861
1	16644	71.3	28.503642529793
1	16645	71.4	28.503665474396
1	16807	71.5	28.503688157847
1	16983	71.6	28.50371109819
1	17003	71.7	28.503733991794
1	17069	71.8	28.503757018031
1	17070	71.9	28.503779948363
1	17199	72	28.503802986769
1	17200	72.1	28.503826023652
1	17201	72.2	28.503849151367
1	17265	72.3	28.503872257188
1	17266	72.4	28.503895300774
1	17428	72.5	28.503918437725
1	17604	72.6	28.50394176468
1	17624	72.7	28.503965202976
1	17690	72.8	28.503988518558
1	17691	72.9	28.504011811438
1	17820	73	28.504035038566
1	17821	73.1	28.504058558847
1	17822	73.2	28.504082196534
1	17886	73.3	28.504105519732
1	17887	73.4	28.504128972525
1	18049	73.5	28.50415260546
1	18225	73.6	28.504176128123
1	18245	73.7	28.504199863592
1	18311	73.8	28.504223661626
1	18312	73.9	28.504247430629
1	18441	74	28.504271177476
1	18442	74.1	28.504294671036
1	18443	74.2	28.504318329588
1	18507	74.3	28.504342052079
1	18508	74.4	28.504365856501
1	18670	74.5	28.504389728032
1	18846	74.6	28.504413595222
1	18866	74.7	28.504437580606
1	18932	74.8	28.504461431723
1	18933	74.9	28.50448521164
1	19058	75	28.504508979872
1	19059	75.1	28.504532916439
1	19060	75.2	28.504556842162
1	19124	75.3	28.504580776466
1	19125	75.4	28.504604911244
1	19283	75.5	28.504628826792
1	19459	75.6	28.504652733404
1	19479	75.7	28.504676801857
1	19545	75.8	28.504700896671
1	19546	75.9	28.504724933395
1	19671	76	28.504748957257
1	19673	76.1	28.504772821661
1	19674	76.2	28.504795567594
1	19738	76.3	28.504817195057
1	19739	76.4	28.504837704048
1	19897	76.5	28.504857094569
1	20073	76.6	28.504875366618
1	20093	76.7	28.504892520197
1	20159	76.8	28.504908555304
1	20160	76.9	28.504923471941
1	20289	77	28.504937270107
1	20290	77.1	28.504949949802
1	20291	77.2	28.504961511026
1	20355	77.3	28.504971953779
1	20356	77.4	28.504981278061
1	20514	77.5	28.504989483872
1	20690	77.6	28.504996571213
1	20710	77.7	28.505002540082
1	20776	77.8	28.50500739048
1	20777	77.9	28.505011122408
1	20906	78	28.505013735864
1	20907	78.1	28.50501523085
1	20908	78.2	28.505015607365
1	20978	78.3	28.505015607365
1	20979	78.4	28.505015607365
1	21208	78.5	28.505015607365
1	21402	78.6	28.505015607365
1	21422	78.7	28.505015607365
1	21494	78.8	28.505015607365
1	21495	78.9	28.505015607365
1	21636	79	28.505015607365
1	21637	79.1	28.505015607365
1	21638	79.2	28.505015607365
1	21708	79.3	28.505015607365
1	21709	79.4	28.505015607365
1	21942	79.5	28.505015607365
1	22140	79.6	28.505015607365
1	22160	79.7	28.505015607365
1	22232	79.8	28.505015607365
1	22233	79.9	28.505015607365
1	22374	80	28.505015607365
1	22375	80.1	28.505015607365
1	22376	80.2	28.505015607365
1	22446	80.3	28.505015607365
1	22447	80.4	28.505015607365
1	22676	80.5	28.505015607365
1	22870	80.6	28.505015607365
1	22890	80.7	28.505015607365
1	22962	80.8	28.505015607365
1	22963	80.9	28.505015607365
1	23096	81	28.505015607365
1	23097	81.1	28.505015607365
1	23098	81.2	28.505015607365
1	23164	81.3	28.505015607365
1	23165	81.4	28.505015607365
1	23386	81.5	28.505015607365
1	23580	81.6	28.505015607365
1	23600	81.7	28.505015607365
1	23672	81.8	28.505015607365
1	23673	81.9	28.505015607365
1	23806	82	28.505015607365
1	23807	82.1	28.505015607365
1	23808	82.2	28.505015607365
1	23874	82.3	28.505015607365
1	23875	82.4	28.505015607365
1	24100	82.5	28.505015607365
1	24298	82.6	28.505015607365
1	24318	82.7	28.505015607365
1	24390	82.8	28.505015607365
1	24391	82.9	28.505015607365
1	24530	83	28.505015607365
1	24531	83.1	28.505015607365
1	24532	83.2	28.505015607365
1	24598	83.3	28.505015607365
1	24599	83.4	28.505015607365
1	24828	83.5	28.505015607365
1	25026	83.6	28.505015607365
1	25050	83.7	28.505015607365
1	25122	83.8	28.505015607365
1	25123	83.9	28.505015607365
1	25258	84	28.505015607365
1	25259	84.1	28.505015607365
1	25260	84.2	28.505015607365
1	25328	84.3	28.505015607365
1	25329	84.4	28.505015607365
1	25558	84.5	28.505015607365
1	25760	84.6	28.505015607365
1	25784	84.7	28.505015607365
1	25856	84.8	28.505015607365
1	25857	84.9	28.505015607365
1	26000	85	28.505015607365
1	26001	85.1	28.505015607365
1	26002	85.2	28.505015607365
1	26076	85.3	28.505015607365
1	26077	85.4	28.505015607365
1	26415	85.5	28.505015607365
1	26635	85.6	28.505015607365
1	26661	85.7	28.505015607365
1	26739	85.8	28.505015607365
1	26740	85.9	28.505015607365
1	26891	86	28.505015607365
1	26892	86.1	28.505015607365
1	26893	86.2	28.505015607365
1	26967	86.3	28.505015607365
1	26968	86.4	28.505015607365
1	27306	86.5	28.505015607365
1	27526	86.6	28.505015607365
1	27552	86.7	28.505015607365
1	27630	86.8	28.505015607365
1	27631	86.9	28.505015607365
1	27786	87	28.505015607365
1	27787	87.1	28.505015607365
1	27788	87.2	28.505015607365
1	27862	87.3	28.505015607365
1	27863	87.4	28.505015607365
1	28209	87.5	28.505015607365
1	28429	87.6	28.505015607365
1	28455	87.7	28.505015607365
1	28533	87.8	28.505015607365
1	28534	87.9	28.505015607365
1	28685	88	28.505015607365
1	28686	88.1	28.505015607365
1	28687	88.2	28.505015607365
1	28761	88.3	28.505015607365
1	28762	88.4	28.505015607365
1	29104	88.5	28.505015607365
1	29324	88.6	28.505015607365
1	29350	88.7	28.505015607365
1	29428	88.8	28.505015607365
1	29429	88.9	28.505015607365
1	29580	89	28.505015607365
1	29581	89.1	28.505015607365
1	29582	89.2	28.505015607365
1	29656	89.3	28.505015607365
1	29657	89.4	28.505015607365
1	29999	89.5	28.505015607365
1	30219	89.6	28.505015607365
1	30245	89.7	28.505015607365
1	30323	89.8	28.505015607365
1	30324	89.9	28.505015607365
1	30475	90	28.505015607365
1	30476	90.1	28.505015607365
1	30477	90.2	28.505015607365
1	30551	90.3	28.505015607365
1	30552	90.4	28.505015607365
1	30906	90.5	28.505015607365
1	31126	90.6	28.505015607365
1	31154	90.7	28.505015607365
1	31232	90.8	28.505015607365
1	31233	90.9	28.505015607365
1	31384	91	28.505015607365
1	31385	91.1	28.505015607365
1	31386	91.2	28.505015607365
1	31460	91.3	28.505015607365
1	31461	91.4	28.505015607365
1	31811	91.5	28.505015607365
1	32033	91.6	28.505015607365
1	32061	91.7	28.505015607365
1	32139	91.8	28.505015607365
1	32140	91.9	28.505015607365
1	32291	92	28.505015607365
1	32292	92.1	28.505015607365
1	32293	92.2	28.505015607365
1	32367	92.3	28.505015607365
1	32368	92.4	28.505015607365
1	32722	92.5	28.505015607365
1	32944	92.6	28.505015607365
1	32974	92.7	28.505015607365
1	33052	92.8	28.505015607365
1	33053	92.9	28.505015607365
1	33204	93	28.505015607365
1	33205	93.1	28.505015607365
1	33206	93.2	28.505015607365
1	33280	93.3	28.505015607365
1	33281	93.4	28.505015607365
1	33631	93.5	28.505015607365
1	33855	93.6	28.505015607365
1	33885	93.7	28.505015607365
1	33965	93.8	28.505015607365
1	33966	93.9	28.505015607365
1	34121	94	28.505015607365
1	34122	94.1	28.505015607365
1	34123	94.2	28.505015607365
1	34260	94.3	28.505015607365
1	34261	94.4	28.505015607365
1	34625	94.5	28.505015607365
1	34863	94.6	28.505015607365
1	34893	94.7	28.505015607365
1	34973	94.8	28.505015607365
1	34974	94.9	28.505015607365
1	35133	95	28.505015607365
1	35134	95.1	28.505015607365
1	35135	95.2	28.505015607365
1	35276	95.3	28.505015607365
1	35277	95.4	28.505015607365
1	35641	95.5	28.505015607365
1	35883	95.6	28.505015607365
1	35913	95.7	28.505015607365
1	35993	95.8	28.505015607365
1	35994	95.9	28.505015607365
1	36153	96	28.505015607365
1	36154	96.1	28.505015607365
1	36155	96.2	28.505015607365
1	36292	96.3	28.505015607365
1	36293	96.4	28.505015607365
1	36657	96.5	28.505015607365
1	36895	96.6	28.505015607365
1	36925	96.7	28.505015607365
1	37005	96.8	28.505015607365
1	37006	96.9	28.505015607365
1	37161	97	28.505015607365
1	37162	97.1	28.505015607365
1	37163	97.2	28.505015607365
1	37300	97.3	28.505015607365
1	37301	97.4	28.505015607365
1	37665	97.5	28.505015607365
1	37903	97.6	28.505015607365
1	37933	97.7	28.505015607365
1	38013	97.8	28.505015607365
1	38014	97.9	28.505015607365
1	38165	98	28.505015607365
1	38166	98.1	28.505015607365
1	38167	98.2	28.505015607365
1	38304	98.3	28.505015607365
1	38305	98.4	28.505015607365
1	38665	98.5	28.505015607365
1	38903	98.6	28.505015607365
1	38933	98.7	28.505015607365
1	39013	98.8	28.505015607365
1	39014	98.9	28.505015607365
1	39165	99	28.505015607365
1	39166	99.1	28.505015607365
1	39167	99.2	28.505015607365
1	39304	99.3	28.505015607365
1	39305	99.4	28.505015607365
1	39667	99.5	28.505015607365
1	39901	99.6	28.505015607365
1	39933	99.7	28.505015607365
1	40013	99.8	28.505015607365
1	40014	99.9	28.505015607365
1	40165	100	28.505015607365
1	40166	100.1	28.505015607365
1	40167	100.2	28.505015607365
1	40304	100.3	28.505015607365
1	40305	100.4	28.505015607365
1	40663	100.5	28.505015607365
1	40897	100.6	28.505015607365
1	40929	100.7	28.505015607365
1	41009	100.8	28.505015607365
1	41010	100.9	28.505015607365
1	41161	101	28.505015607365
1	41162	101.1	28.505015607365
1	41163	101.2	28.505015607365
1	41300	101.3	28.505015607365
1	41301	101.4	28.505015607365
1	41659	101.5	28.505015607365
1	41893	101.6	28.505015607365
1	41925	101.7	28.505015607365
1	42005	101.8	28.505015607365
1	42006	101.9	28.505015607365
1	42157	102	28.505015607365
1	42158	102.1	28.505015607365
1	42159	102.2	28.505015607365
1	42296	102.3	28.505015607365
1	42297	102.4	28.505015607365
1	42655	102.5	28.505015607365
1	42889	102.6	28.505015607365
1	42921	102.7	28.505015607365
1	43001	102.8	28.505015607365
1	43002	102.9	28.505015607365
1	43153	103	28.505015607365
1	43154	103.1	28.505015607365
1	43155	103.2	28.505015607365
1	43292	103.3	28.505015607365
1	43293	103.4	28.505015607365
1	43651	103.5	28.505015607365
1	43885	103.6	28.505015607365
1	43917	103.7	28.505015607365
1	43997	103.8	28.505015607365
1	43998	103.9	28.505015607365
1	44149	104	28.505015607365
1	44150	104.1	28.505015607365
1	44151	104.2	28.505015607365
1	44288	104.3	28.505015607365
1	44289	104.4	28.505015607365
1	44734	104.5	28.505015607365
1	44978	104.6	28.505015607365
1	45012	104.7	28.505015607365
1	45098	104.8	28.505015607365
1	45099	104.9	28.505015607365
1	45262	105	28.505015607365
1	45263	105.1	28.505015607365
1	45264	105.2	28.505015607365
1	45409	105.3	28.505015607365
1	45410	105.4	28.505015607365
1	45855	105.5	28.505015607365
1	46103	105.6	28.505015607365
1	46139	105.7	28.505015607365
1	46221	105.8	28.505015607365
1	46222	105.9	28.505015607365
1	46385	106	28.505015607365
1	46386	106.1	28.505015607365
1	46387	106.2	28.505015607365
1	46532	106.3	28.505015607365
1	46533	106.4	28.505015607365
1	46980	106.5	28.505015607365
1	47224	106.6	28.505015607365
1	47260	106.7	28.505015607365
1	47342	106.8	28.505015607365
1	47343	106.9	28.505015607365
1	47506	107	28.505015607365
1	47507	107.1	28.505015607365
1	47508	107.2	28.505015607365
1	47653	107.3	28.505015607365
1	47654	107.4	28.505015607365
1	48101	107.5	28.505015607365
1	48345	107.6	28.505015607365
1	48381	107.7	28.505015607365
1	48463	107.8	28.505015607365
1	48464	107.9	28.505015607365
1	48627	108	28.505015607365
1	48628	108.1	28.505015607365
1	48629	108.2	28.505015607365
1	48774	108.3	28.505015607365
1	48775	108.4	28.505015607365
1	49222	108.5	28.505015607365
1	49466	108.6	28.505015607365
1	49502	108.7	28.505015607365
1	49584	108.8	28.505015607365
1	49585	108.9	28.505015607365
1	49748	109	28.505015607365
1	49749	109.1	28.505015607365
1	49750	109.2	28.505015607365
1	49899	109.3	28.505015607365
1	49900	109.4	28.505015607365
1	50343	109.5	28.505015607365
1	50587	109.6	28.505015607365
1	50623	109.7	28.505015607365
1	50701	109.8	28.505015607365
1	50702	109.9	28.505015607365
1	50865	110	28.505015607365
1	50866	110.1	28.505015607365
1	50867	110.2	28.505015607365
1	51012	110.3	28.505015607365
1	51013	110.4	28.505015607365
1	51456	110.5	28.505015607365
1	51704	110.6	28.505015607365
1	51740	110.7	28.505015607365
1	51820	110.8	28.505015607365
1	51878	110.9	28.505015607365
1	52045	111	28.505015607365
1	52046	111.1	28.505015607365
1	52047	111.2	28.505015607365
1	52200	111.3	28.505015607365
1	52201	111.4	28.505015607365
1	52660	111.5	28.505015607365
1	52918	111.6	28.505015607365
1	52954	111.7	28.505015607365
1	53034	111.8	28.505015607365
1	53092	111.9	28.505015607365
1	53255	112	28.505015607365
1	53256	112.1	28.505015607365
1	53257	112.2	28.505015607365
1	53406	112.3	28.505015607365
1	53407	112.4	28.505015607365
1	53866	112.5	28.505015607365
1	54120	112.6	28.505015607365
1	54156	112.7	28.505015607365
1	54232	112.8	28.505015607365
1	54290	112.9	28.505015607365
1	54453	113	28.505015607365
1	54454	113.1	28.505015607365
1	54455	113.2	28.505015607365
1	54604	113.3	28.505015607365
1	54605	113.4	28.505015607365
1	55060	113.5	28.505015607365
1	55302	113.6	28.505015607365
1	55338	113.7	28.505015607365
1	55410	113.8	28.505015607365
1	55472	113.9	28.505015607365
1	55627	114	28.505015607365
1	55628	114.1	28.505015607365
1	55629	114.2	28.505015607365
1	55782	114.3	28.505015607365
1	55783	114.4	28.505015607365
1	56238	114.5	28.505015607365
1	56480	114.6	28.505015607365
1	56516	114.7	28.505015607365
1	56588	114.8	28.505015607365
1	56646	114.9	28.505015607365
1	56801	115	28.505015607365
1	56802	115.1	28.505015607365
1	56803	115.2	28.505015607365
1	56948	115.3	28.505015607365
1	56949	115.4	28.505015607365
1	57404	115.5	28.505015607365
1	57646	115.6	28.505015607365
1	57682	115.7	28.505015607365
1	57746	115.8	28.505015607365
1	57808	115.9	28.505015607365
1	57959	116	28.505015607365
1	57960	116.1	28.505015607365
1	57961	116.2	28.505015607365
1	58110	116.3	28.505015607365
1	58111	116.4	28.505015607365
1	58566	116.5	28.505015607365
1	58808	116.6	28.505015607365
1	58844	116.7	28.505015607365
1	58908	116.8	28.505015607365
1	58974	116.9	28.505015607365
1	59129	117	28.505015607365
1	59130	117.1	28.505015607365
1	59131	117.2	28.505015607365
1	59280	117.3	28.505015607365
1	59281	117.4	28.505015607365
1	59736	117.5	28.505015607365
1	59978	117.6	28.505015607365
1	60014	117.7	28.505015607365
1	60078	117.8	28.505015607365
1	60144	117.9	28.505015607365
1	60291	118	28.505015607365
1	60292	118.1	28.505015607365
1	60293	118.2	28.505015607365
1	60438	118.3	28.505015607365
1	60439	118.4	28.505015607365
1	60894	118.5	28.505015607365
1	61136	118.6	28.505015607365
1	61172	118.7	28.505015607365
1	61236	118.8	28.505015607365
1	61302	118.9	28.505015607365
1	61445	119	28.505015607365
1	61446	119.1	28.505015607365
1	61447	119.2	28.505015607365
1	61596	119.3	28.505015607365
1	61597	119.4	28.505015607365
1	62064	119.5	28.505015607365
1	62320	119.6	28.505015607365
1	62356	119.7	28.505015607365
1	62422	119.8	28.505015607365
1	62494	119.9	28.505015607365
1	62641	120	28.505015607365
1	62705	120.1	28.505015607365
1	62706	120.2	28.505015607365
1	62859	120.3	28.505015607365
1	62860	120.4	28.505015607365
1	63327	120.5	28.505015607365
1	63583	120.6	28.505015607365
1	63619	120.7	28.505015607365
1	63685	120.8	28.505015607365
1	63757	120.9	28.505015607365
1	63904	121	28.505015607365
[...]
79	83186	135.1	1.1476937855109
79	83187	135.2	1.1997309837006
79	83453	135.3	1.1570150893199
79	83454	135.4	1.1651921948633
79	83949	135.5	1.160730651765
79	84221	135.6	1.2055210822727
79	84261	135.7	0.973
79	84327	135.8	1.2087737251093
79	84403	135.9	1.1577953672424
79	84566	136	1.1545631088532
79	84727	136.1	1.2121863881627
79	84728	136.2	1.1541064647351
80	70207	126	658.02422613404
80	70365	126.1	658.02422613404
80	70366	126.2	658.04921816597
80	70527	126.3	658.09814371162
80	70528	126.4	658.17091548528
80	71015	126.5	658.26570238719
80	71281	126.6	658.38207499847
80	71319	126.7	658.52197694471
80	71387	126.8	658.68715616266
80	71461	126.9	658.87549178679
80	71624	127	659.08612608542
80	71781	127.1	659.31343321436
80	71782	127.2	659.56113523381
80	71943	127.3	659.82624281713
80	71944	127.4	660.11192483141
80	72431	127.5	660.42046975062
80	72701	127.6	660.75234473323
80	72739	127.7	661.10111303778
80	72807	127.8	661.46844122416
80	72881	127.9	661.8577052783
80	73040	128	662.2679216328
80	73201	128.1	662.69180632503
80	73202	128.2	663.13827449236
80	73363	128.3	663.58754193789
80	73364	128.4	664.00749456358
80	73851	128.5	664.40616258073
80	74117	128.6	664.79587478619
80	74155	128.7	665.16613894532
80	74223	128.8	665.53065581122
80	74297	128.9	665.88015875735
80	74456	129	666.21981579178
80	74613	129.1	666.55590203108
80	74614	129.2	666.89295222745
80	74779	129.3	667.23237329749
80	74780	129.4	667.57315166791
80	75263	129.5	667.9126679526
80	75529	129.6	668.25956694493
80	75567	129.7	668.61328860563
80	75635	129.8	668.9669878249
80	75709	129.9	669.32908333585
80	75872	130	669.68875478805
80	76029	130.1	670.04372439196
80	76030	130.2	670.3904527898
80	76191	130.3	670.72347803469
80	76192	130.4	671.05721317805
80	76663	130.5	671.38137618343
80	76921	130.6	671.70892534616
80	76959	130.7	672.03298206421
80	77027	130.8	672.35163722376
80	77101	130.9	672.6564611665
80	77260	131	672.95323975125
80	77421	131.1	673.24880621988
80	77422	131.2	673.53493940775
80	77583	131.3	673.81526860024
80	77584	131.4	674.08951933643
80	78055	131.5	674.36119237268
80	78309	131.6	674.63521893676
80	78347	131.7	674.89851693418
80	78415	131.8	675.15913424721
80	78489	131.9	675.42900035142
80	78648	132	675.68772234099
80	78809	132.1	675.94289667989
80	78810	132.2	676.20798477984
80	78971	132.3	676.46747587106
80	78972	132.4	676.72626041274
80	79443	132.5	676.97800695547
80	79697	132.6	677.23751290926
80	79735	132.7	677.49292138448
80	79803	132.8	677.75741481844
80	79877	132.9	678.01415701507
80	80032	133	678.27352847204
80	80189	133.1	678.52580560176
80	80190	133.2	678.77751957793
80	80355	133.3	679.03523721128
80	80356	133.4	679.29032922926
80	80855	133.5	679.54422930158
80	81127	133.6	679.79726383423
80	81167	133.7	680.05074761837
80	81237	133.8	680.30969205599
80	81313	133.9	680.56737522471
80	81476	134	680.82069856292
80	81637	134.1	681.07621814245
80	81638	134.2	681.33996543207
80	81904	134.3	681.5970877766
80	81905	134.4	681.85500056882
80	82404	134.5	682.11923757504
80	82676	134.6	682.38078341896
80	82716	134.7	682.64290691398
80	82782	134.8	682.90120939321
80	82858	134.9	683.1665435714
80	83025	135	683.4312167803
80	83186	135.1	683.69274380922
80	83187	135.2	683.95313483836
80	83453	135.3	684.21837641533
80	83454	135.4	684.4839828132
80	83949	135.5	684.75911831893
80	84221	135.6	685.03468963265
80	84261	135.7	685.31369358197
80	84327	135.8	685.58221113276
80	84403	135.9	685.86382722377
80	84566	136	686.15089801171
80	84727	136.1	686.43649730765
80	84728	136.2	686.73218656778
81	70207	126	25.20573375983
81	70365	126.1	25.20573375983
81	70366	126.2	25.205734381005
81	70527	126.3	25.205735597045
81	70528	126.4	25.205737405781
81	71015	126.5	25.205739761701
81	71281	126.6	25.205742654131
81	71319	126.7	25.205746131382
81	71387	126.8	25.205750236896
81	71461	126.9	25.205754917961
81	71624	127	25.205760153257
81	71781	127.1	25.205765802956
81	71782	127.2	25.205771959567
81	71943	127.3	25.205778548792
81	71944	127.4	25.205785649392
81	72431	127.5	25.205793318248
81	72701	127.6	25.205801566971
81	72739	127.7	25.205810235576
81	72807	127.8	25.205819365485
81	72881	127.9	25.205829040607
81	73040	128	25.205839236498
81	73201	128.1	25.205849772113
81	73202	128.2	25.205860869039
81	73363	128.3	25.205872035541
81	73364	128.4	25.205882473425
81	73851	128.5	25.205892382283
81	74117	128.6	25.205902068545
81	74155	128.7	25.205911271427
81	74223	128.8	25.20592033146
81	74297	128.9	25.205929018324
81	74456	129	25.205937460469
81	74613	129.1	25.205945813862
81	74614	129.2	25.205954191214
81	74779	129.3	25.205962627494
81	74780	129.4	25.20597109751
81	75263	129.5	25.205979536157
81	75529	129.6	25.2059881583
81	75567	129.7	25.205996950019
81	75635	129.8	25.206005741181
81	75709	129.9	25.206014741033
81	75872	130	25.206023680634
81	76029	130.1	25.206032503371
81	76030	130.2	25.206041121274
81	76191	130.3	25.206049398587
81	76192	130.4	25.206057693543
81	76663	130.5	25.206065750586
81	76921	130.6	25.20607389179
81	76959	130.7	25.206081946191
81	77027	130.8	25.206089866336
81	77101	130.9	25.206097442707
81	77260	131	25.206104819112
81	77421	131.1	25.20611216539
81	77422	131.2	25.206119277205
81	77583	131.3	25.206126244761
81	77584	131.4	25.206133061238
81	78055	131.5	25.206139813647
81	78309	131.6	25.206146624553
81	78347	131.7	25.2061531688
81	78415	131.8	25.20615964642
81	78489	131.9	25.206166353918
81	78648	132	25.206172784429
81	78809	132.1	25.206179126765
81	78810	132.2	25.206185715505
81	78971	132.3	25.206192165133
81	78972	132.4	25.206198597199
81	79443	132.5	25.206204854337
81	79697	132.6	25.206211304334
81	79735	132.7	25.206217652488
81	79803	132.8	25.206224226449
81	79877	132.9	25.206230607753
81	80032	133	25.206237054407
81	80189	133.1	25.206243324732
81	80190	133.2	25.20624958106
81	80355	133.3	25.206255986608
81	80356	133.4	25.206262326897
81	80855	133.5	25.206268637561
81	81127	133.6	25.206274926711
81	81167	133.7	25.206281227028
81	81237	133.8	25.206287663068
81	81313	133.9	25.20629406776
81	81476	134	25.206300364089
81	81637	134.1	25.206306715005
81	81638	134.2	25.20631327042
81	81904	134.3	25.206319661172
81	81905	134.4	25.206326071571
81	82404	134.5	25.206332639158
81	82676	134.6	25.206339139857
81	82716	134.7	25.206345654912
81	82782	134.8	25.206352074997
81	82858	134.9	25.206358669854
81	83025	135	25.206365248283
81	83186	135.1	25.206371748513
81	83187	135.2	25.206378220509
81	83453	135.3	25.206384813064
81	83454	135.4	25.206391414687
81	83949	135.5	25.206398253155
81	84221	135.6	25.206405102455
81	84261	135.7	25.206412037073
81	84327	135.8	25.206418711053
81	84403	135.9	25.206425710595
81	84566	136	25.206432845713
81	84727	136.1	25.206439944258
81	84728	136.2	25.206447293588
82	70365	126.1	0.249920319336
82	70366	126.2	0.48925545648692
82	70527	126.3	0.7277177366247
82	70528	126.4	0.94786901908842
82	71015	126.5	1.163726112798
82	71281	126.6	1.3990194623643
82	71319	126.7	1.651792179576
82	71387	126.8	1.88335624128
82	71461	126.9	2.1063429863158
82	71624	127	2.2730712893971
82	71781	127.1	2.477020194473
82	71782	127.2	2.6510758331821
82	71943	127.3	2.856820142796
82	71944	127.4	3.0854491921009
82	72431	127.5	3.3187498261298
82	72701	127.6	3.4876830455202
82	72739	127.7	3.6732818637283
82	72807	127.8	3.892640541476
82	72881	127.9	4.1021635449452
82	73040	128	4.2388469222894
82	73201	128.1	4.4646816732928
82	73202	128.2	4.4926744553477
82	73363	128.3	4.1995262568788
82	73364	128.4	3.986680171491
82	73851	128.5	3.8971220546317
82	74117	128.6	3.7026415912708
82	74155	128.7	3.6451686590161
82	74223	128.8	3.4950294612818
82	74297	128.9	3.3965703442906
82	74456	129	3.3608623930147
82	74613	129.1	3.3705019637077
82	74614	129.2	3.3942107003854
82	74779	129.3	3.4077837041692
82	74780	129.4	3.3951628469022
82	75263	129.5	3.4689899233748
82	75529	129.6	3.5372166070124
82	75567	129.7	3.5369921926906
82	75635	129.8	3.62095510942
82	75709	129.9	3.5967145220181
82	75872	130	3.5496960391348
82	76029	130.1	3.4672839784265
82	76030	130.2	3.3302524488788
82	76191	130.3	3.3373514335452
82	76192	130.4	3.2416300538635
82	76663	130.5	3.2754916273196
82	76921	130.6	3.2405671804324
82	76959	130.7	3.1865515955511
82	77027	130.8	3.0482394273359
82	77101	130.9	2.9677858475491
82	77260	131	2.9556646862979
82	77421	131.1	2.8613318786561
82	77422	131.2	2.8032919249144
82	77583	131.3	2.7425073619586
82	77584	131.4	2.7167303624852
82	78055	131.5	2.7402656407508
82	78309	131.6	2.6329799741869
82	78347	131.7	2.6061731303049
82	78415	131.8	2.6986610421367
82	78489	131.9	2.5872198956751
82	78648	132	2.551743389061
82	78809	132.1	2.6508809994628
82	78810	132.2	2.5949109122155
82	78971	132.3	2.5878454168142
82	78972	132.4	2.5174654272428
82	79443	132.5	2.5950595379311
82	79697	132.6	2.5540847521965
82	79735	132.7	2.644934339569
82	79803	132.8	2.5674219663037
82	79877	132.9	2.5937145696972
82	80032	133	2.5227712972167
82	80189	133.1	2.5171397617597
82	80190	133.2	2.5771763334841
82	80355	133.3	2.5509201797334
82	80356	133.4	2.5390007232782
82	80855	133.5	2.5303453264147
82	81127	133.6	2.5348378414705
82	81167	133.7	2.5894443762061
82	81237	133.8	2.5768316871749
82	81313	133.9	2.5332333820431
82	81476	134	2.555195795378
82	81637	134.1	2.6374728962044
82	81638	134.2	2.5712234452789
82	81904	134.3	2.5791279221651
82	81905	134.4	2.6423700621776
82	82404	134.5	2.6154584392776
82	82676	134.6	2.6212349501438
82	82716	134.7	2.5830247923141
82	82782	134.8	2.6533417819121
82	82858	134.9	2.6467320890011
82	83025	135	2.6152702891766
82	83186	135.1	2.6039102914442
82	83187	135.2	2.6524157696368
82	83453	135.3	2.656063978783
82	83454	135.4	2.7513550572431
82	83949	135.5	2.7557131371843
82	84221	135.6	2.7900394932344
82	84261	135.7	2.6851755079046
82	84327	135.8	2.8161609100483
82	84403	135.9	2.8707078794845
82	84566	136	2.8559929593763
82	84727	136.1	2.956892601327
82	84728	136.2	3.0075272289862
83	70366	126.2	2.3933513715092
83	70527	126.3	2.3846228013778
83	70528	126.4	2.2015128246372
83	71015	126.5	2.1585709370954
83	71281	126.6	2.352933495663
83	71319	126.7	2.5277271721173
83	71387	126.8	2.3156406170404
83	71461	126.9	2.2298674503577
83	71624	127	1.6672830308131
83	71781	127.1	2.0394890507588
83	71782	127.2	1.7405563870911
83	71943	127.3	2.0574430961395
83	71944	127.4	2.2862904930487
83	72431	127.5	2.3330063402886
83	72701	127.6	1.6893321939046
83	72739	127.7	1.8559881820809
83	72807	127.8	2.1935867774766
83	72881	127.9	2.0952300346922
83	73040	128	1.3668337734416
83	73201	128.1	2.2583475100342
83	73202	128.2	0.27992782054924
83	73363	128.3	-2.9314819846894
83	73364	128.4	-2.1284608538772
83	73851	128.5	-0.89558116859313
83	74117	128.6	-1.9448046336089
83	74155	128.7	-0.57472932254753
83	74223	128.8	-1.5013919773428
83	74297	128.9	-0.98459116991226
83	74456	129	-0.35707951275904
83	74613	129.1	0.096395706929937
83	74614	129.2	0.23708736677742
83	74779	129.3	0.13573003783795
83	74780	129.4	-0.12620857267018
83	75263	129.5	0.73827076472643
83	75529	129.6	0.68226683637559
83	75567	129.7	-0.002244143218233
83	75635	129.8	0.83962916729422
83	75709	129.9	-0.24240587401842
83	75872	130	-0.47018482883319
83	76029	130.1	-0.82412060708333
83	76030	130.2	-1.3703152954773
83	76191	130.3	0.070989846664138
83	76192	130.4	-0.95721379681716
83	76663	130.5	0.33861573456114
83	76921	130.6	-0.34924446887162
83	76959	130.7	-0.54015584881305
83	77027	130.8	-1.3831216821517
83	77101	130.9	-0.8045357978681
83	77260	131	-0.12121161251244
83	77421	131.1	-0.94332807641734
83	77422	131.2	-0.58039953741791
83	77583	131.3	-0.60784562955718
83	77584	131.4	-0.25776999473412
83	78055	131.5	0.2353527826555
83	78309	131.6	-1.0728566656389
83	78347	131.7	-0.26806843882002
83	78415	131.8	0.92487911831816
83	78489	131.9	-1.1144114646156
83	78648	132	-0.3547650661418
83	78809	132.1	0.99137610401896
83	78810	132.2	-0.55970087247347
83	78971	132.3	-0.070654954012839
83	78972	132.4	-0.70379989571413
83	79443	132.5	0.77594110688255
83	79697	132.6	-0.4097478573461
83	79735	132.7	0.90849587372565
83	79803	132.8	-0.77512373265322
83	79877	132.9	0.26292603393469
83	80032	133	-0.70943272480466
83	80189	133.1	-0.056315354569643
83	80190	133.2	0.6003657172432
83	80355	133.3	-0.26256153750604
83	80356	133.4	-0.11919456455216
83	80855	133.5	-0.086553968635279
83	81127	133.6	0.044925150558184
83	81167	133.7	0.54606534735601
83	81237	133.8	-0.12612689031264
83	81313	133.9	-0.43598305131755
83	81476	134	0.21962413334867
83	81637	134.1	0.82277100826461
83	81638	134.2	-0.66249450925535
83	81904	134.3	0.07904476886158
83	81905	134.4	0.63242140012579
83	82404	134.5	-0.26911622900047
83	82676	134.6	0.057765108661942
83	82716	134.7	-0.38210157829635
83	82782	134.8	0.70316989597992
83	82858	134.9	-0.06609692911014
83	83025	135	-0.31461799824553
83	83186	135.1	-0.11359997732324
83	83187	135.2	0.48505478192585
83	83453	135.3	0.036482091461671
83	83454	135.4	0.95291078460088
83	83949	135.5	0.043580799412264
83	84221	135.6	0.3432635605008
83	84261	135.7	-1.0486398532979
83	84327	135.8	1.3098540214374
83	84403	135.9	0.54546969436119
83	84566	136	-0.14714920108157
83	84727	136.1	1.0089964195074
83	84728	136.2	0.50634627659149
84	70366	126.2	1.4158139145268
84	70527	126.3	1.5633557907247
84	70528	126.4	1.6587096112112
84	71015	126.5	1.7716722086611
84	71281	126.6	1.9710653950016
84	71319	126.7	2.1963412598721
84	71387	126.8	2.252513692075
84	71461	126.9	2.3444179072689
84	71624	127	2.134092532804
84	71781	127.1	2.4483926267149
84	71782	127.2	2.3516667498955
84	71943	127.3	2.6665033991371
84	71944	127.4	2.9616257472134
84	72431	127.5	3.1394553379331
84	72701	127.6	2.7021020219284
84	72739	127.7	2.9348115686988
84	72807	127.8	3.3610914409829
84	72881	127.9	3.3856545789995
84	73040	128	2.7178234057692
84	73201	128.1	3.763553074207
84	73202	128.2	1.6381911180357
84	73363	128.3	0.973
84	73364	128.4	0.973
84	73851	128.5	0.973
84	74117	128.6	0.973
84	74155	128.7	0.973
84	74223	128.8	0.973
84	74297	128.9	0.973
84	74456	129	0.973
84	74613	129.1	1.354431551508
84	74614	129.2	1.4712876670879
84	74779	129.3	1.3895191444475
84	74780	129.4	0.973
84	75263	129.5	1.8984144478332
84	75529	129.6	1.866335235158
84	75567	129.7	1.2827992239413
84	75635	129.8	2.0217631518547
84	75709	129.9	0.973
84	75872	130	0.973
84	76029	130.1	0.973
84	76030	130.2	0.973
84	76191	130.3	1.331524915029
84	76192	130.4	0.973
84	76663	130.5	1.5385571710044
84	76921	130.6	0.973
84	76959	130.7	0.973
84	77027	130.8	0.973
84	77101	130.9	0.973
84	77260	131	0.973
84	77421	131.1	0.973
84	77422	131.2	0.973
84	77583	131.3	0.973
84	77584	131.4	0.973
84	78055	131.5	1.3995192005932
84	78309	131.6	0.973
84	78347	131.7	0.973
84	78415	131.8	1.8435193924926
84	78489	131.9	0.973
84	78648	132	0.973
84	78809	132.1	1.8729521895622
84	78810	132.2	0.973
84	78971	132.3	1.1923732216203
84	78972	132.4	0.973
84	79443	132.5	1.722080907443
84	79697	132.6	0.973
84	79735	132.7	1.8184027049806
84	79803	132.8	0.973
84	79877	132.9	1.4010838705587
84	80032	133	0.973
84	80189	133.1	1.1987375119769
84	80190	133.2	1.6087910975387
84	80355	133.3	0.973
84	80356	133.4	0.973
84	80855	133.5	1.1807787257498
84	81127	133.6	1.2612297761999
84	81167	133.7	1.577294160816
84	81237	133.8	0.973
84	81313	133.9	0.973
84	81476	134	1.3700488179209
84	81637	134.1	1.7619052961597
84	81638	134.2	0.973
84	81904	134.3	1.2851338360468
84	81905	134.4	1.6419052827271
84	82404	134.5	0.973
84	82676	134.6	1.274603370608
84	82716	134.7	0.973
84	82782	134.8	1.6893686214421
84	82858	134.9	1.1972303920997
84	83025	135	0.973
84	83186	135.1	0.973
84	83187	135.2	1.549739014486
84	83453	135.3	1.2632120946743
84	83454	135.4	1.8765022147936
84	83949	135.5	1.2738119722397
84	84221	135.6	1.4774080941019
84	84261	135.7	0.973
84	84327	135.8	2.1369059061923
84	84403	135.9	1.628046472236
84	84566	136	0.973
84	84727	136.1	1.9740508121304
84	84728	136.2	1.6246030666801
85	80356	133.4	732.40650351678
85	80855	133.5	732.40650351678
85	81127	133.6	732.43240231384
85	81167	133.7	732.48402930196
85	81237	133.8	732.56122665104
85	81313	133.9	732.66349296141
85	81476	134	732.79170678696
85	81637	134.1	732.94449794325
85	81638	134.2	733.12189753967
85	81904	134.3	733.32514913737
85	81905	134.4	733.5542314392
85	82404	134.5	733.80708755584
85	82676	134.6	734.08368800564
85	82716	134.7	734.38443847775
85	82782	134.8	734.70926299795
85	82858	134.9	735.05889003306
85	83025	135	735.4323851401
85	83186	135.1	735.82976837936
85	83187	135.2	736.2512992245
85	83453	135.3	736.69660114189
85	83454	135.4	737.16555854619
85	83949	135.5	737.65866810232
85	84221	135.6	738.17669214398
85	84261	135.7	738.7197151641
85	84327	135.8	739.28788018711
85	84403	135.9	739.88203872224
85	84566	136	740.50064417351
85	84727	136.1	741.14503707012
85	84728	136.2	741.81352756116
86	80356	133.4	25.207582524601
86	80855	133.5	25.207582524601
86	81127	133.6	25.207583168313
86	81167	133.7	25.207584451497
86	81237	133.8	25.20758637023
86	81313	133.9	25.20758891205
86	81476	134	25.207592098793
86	81637	134.1	25.207595896403
86	81638	134.2	25.207600305654
86	81904	134.3	25.207605357454
86	81905	134.4	25.207611051274
86	82404	134.5	25.20761733599
86	82676	134.6	25.207624210869
86	82716	134.7	25.207631685995
86	82782	134.8	25.207639759479
86	82858	134.9	25.207648449427
86	83025	135	25.207657732614
86	83186	135.1	25.207667609539
86	83187	135.2	25.20767808665
86	83453	135.3	25.207689154589
86	83454	135.4	25.207700810482
86	83949	135.5	25.207713066676
86	84221	135.6	25.207725942116
86	84261	135.7	25.207739438904
86	84327	135.8	25.207753560595
86	84403	135.9	25.207768328351
86	84566	136	25.207783703734
86	84727	136.1	25.207799720061
86	84728	136.2	25.207816335332
87	80855	133.5	0.25898797057555
87	81127	133.6	0.51626988119208
87	81167	133.7	0.77197349084787
87	81237	133.8	1.0226631036666
87	81313	133.9	1.2821382555647
87	81476	134	1.5279115628464
87	81637	134.1	1.7739959642255
87	81638	134.2	2.0325159769927
87	81904	134.3	2.2908230183311
87	81905	134.4	2.5285611664044
87	82404	134.5	2.7660044979864
87	82676	134.6	3.0075047211229
87	82716	134.7	3.248245201924
87	82782	134.8	3.4962703511507
87	82858	134.9	3.7349510704071
87	83025	135	3.9738323925656
87	83186	135.1	4.2153084514268
87	83187	135.2	4.4530191738877
87	83453	135.3	4.6895740429644
87	83454	135.4	4.9310955613043
87	83949	135.5	5.1802404166662
87	84221	135.6	5.4302302011639
87	84261	135.7	5.6816502300619
87	84327	135.8	5.9415853513713
87	84403	135.9	6.186054512628
87	84566	136	6.4439289661028
87	84727	136.1	6.6849049104416
87	84728	136.2	6.9249939785838
88	81127	133.6	2.5728191061653
88	81167	133.7	2.5570360965579
88	81237	133.8	2.5068961281875
88	81313	133.9	2.594751518981
88	81476	134	2.4577330728169
88	81637	134.1	2.4608440137908
88	81638	134.2	2.585200127672
88	81904	134.3	2.583070413384
88	81905	134.4	2.3773814807333
88	82404	134.5	2.3744333158201
88	82676	134.6	2.4150022313651
88	82716	134.7	2.4074048080109
88	82782	134.8	2.4802514922665
88	82858	134.9	2.386807192564
88	83025	135	2.388813221585
88	83186	135.1	2.4147605886124
88	83187	135.2	2.3771072246088
88	83453	135.3	2.365548690767
88	83454	135.4	2.4152151833987
88	83949	135.5	2.491448553619
88	84221	135.6	2.4998978449777
88	84261	135.7	2.5142002889793
88	84327	135.8	2.5993512130948
88	84403	135.9	2.4446916125668
88	84566	136	2.5787445347477
88	84727	136.1	2.4097594433883
88	84728	136.2	2.4008906814223
89	81127	133.6	1.4550304031907
89	81167	133.7	1.6230078439961
89	81237	133.8	1.7772862233748
89	81313	133.9	1.973811129389
89	81476	134	2.0890388689039
89	81637	134.1	2.24818539615
89	81638	134.2	2.4751492321826
89	81904	134.3	2.6477029516961
89	81905	134.4	2.6822076809776
89	82404	134.5	2.8282010564022
89	82676	134.6	3.0080095004475
89	82716	134.7	3.1544431174382
89	82782	134.8	3.3724709489835
89	82858	134.9	3.4434077149556
89	83025	135	3.5952457980009
89	83186	135.1	3.7733952904253
89	83187	135.2	3.8840290321919
89	83453	135.3	4.0192656113615
89	83454	135.4	4.229179865796
89	83949	135.5	4.4831553962824
89	84221	135.6	4.6583263299156
89	84261	135.7	4.8436644386363
89	84327	135.8	5.1380671416698
89	84403	135.9	5.0749254494248
89	84566	136	5.450330224903
89	84727	136.1	5.3423486612084
89	84728	136.2	5.4816429778847

