version 2
run General-0-20180413-01:51:13-16373
attr configname General
attr datetime 20180413-01:51:13
attr experiment General
attr inifile omnetpp.ini
attr iterationvars ""
attr iterationvarsf ""
attr measurement ""
attr network SmartConeScenario
attr processid 16373
attr repetition 0
attr replication #0
attr resultdir results
attr runnumber 0
attr seedset 0
param **.debug false
param **.coreDebug false
param *.playgroundSizeX 50000m
param *.playgroundSizeY 2500m
param *.playgroundSizeZ 50m
param *.annotations.draw true
param *.manager.updateInterval 1s
param *.manager.host "\"localhost\""
param *.manager.port 9999
param *.manager.autoShutdown true
param *.manager.launchConfig "xmldoc(\"smartcone.launchd.xml\")"
param *.manager.penetrationRate 1
param *.rsu[0].mobility.x 2000
param *.rsu[0].mobility.y 2000
param *.rsu[0].mobility.z 3
param *.rsu[*].applType "\"TraCIDemoRSU11p\""
param *.rsu[*].appl.headerLength "80 bit"
param *.rsu[*].appl.sendBeacons false
param *.rsu[*].appl.dataOnSch false
param *.rsu[*].appl.beaconInterval 1s
param *.rsu[*].appl.beaconUserPriority 7
param *.rsu[*].appl.dataUserPriority 5
param *.connectionManager.sendDirect true
param *.connectionManager.maxInterfDist 2600m
param *.connectionManager.drawMaxIntfDist false
param *.**.nic.mac1609_4.useServiceChannel false
param *.**.nic.mac1609_4.txPower 20mW
param *.**.nic.mac1609_4.bitrate 6Mbps
param *.**.nic.phy80211p.sensitivity -89dBm
param *.**.nic.phy80211p.useThermalNoise true
param *.**.nic.phy80211p.thermalNoise -110dBm
param *.**.nic.phy80211p.decider "xmldoc(\"config.xml\")"
param *.**.nic.phy80211p.analogueModels "xmldoc(\"config.xml\")"
param *.**.nic.phy80211p.usePropagationDelay true
param *.**.nic.phy80211p.antenna "xmldoc(\"antenna.xml\", \"/root/Antenna[@id='monopole']\")"
param *.node[*].applType "\"SmartConeApp\""
param *.node[*].appl.headerLength "80 bit"
param *.node[*].appl.sendBeacons false
param *.node[*].appl.dataOnSch false
param *.node[*].appl.beaconInterval 1s
param *.node[*].veinsmobilityType.debug true
param *.node[*].veinsmobility.x 0
param *.node[*].veinsmobility.y 0
param *.node[*].veinsmobility.z 1.895

scalar SmartConeScenario.node[0].appl generatedWSMs 1
scalar SmartConeScenario.node[0].appl receivedWSMs 11
scalar SmartConeScenario.node[0].appl generatedBSMs 0
scalar SmartConeScenario.node[0].appl receivedBSMs 0
scalar SmartConeScenario.node[0].appl generatedWSAs 0
scalar SmartConeScenario.node[0].appl receivedWSAs 0
scalar SmartConeScenario.node[0].nic.phy80211p busyTime 1.0061268672784e-05
scalar SmartConeScenario.node[0].nic.mac1609_4 ReceivedUnicastPackets 0
scalar SmartConeScenario.node[0].nic.mac1609_4 ReceivedBroadcasts 11
scalar SmartConeScenario.node[0].nic.mac1609_4 SentPackets 1
scalar SmartConeScenario.node[0].nic.mac1609_4 SNIRLostPackets 0
scalar SmartConeScenario.node[0].nic.mac1609_4 RXTXLostPackets 0
scalar SmartConeScenario.node[0].nic.mac1609_4 TotalLostPackets 0
scalar SmartConeScenario.node[0].nic.mac1609_4 DroppedPacketsInMac 0
scalar SmartConeScenario.node[0].nic.mac1609_4 TooLittleTime 0
scalar SmartConeScenario.node[0].nic.mac1609_4 TimesIntoBackoff 1
scalar SmartConeScenario.node[0].nic.mac1609_4 SlotsBackoff 0
scalar SmartConeScenario.node[0].nic.mac1609_4 NumInternalContention 0
scalar SmartConeScenario.node[0].nic.mac1609_4 totalBusyTime 0.002785
scalar SmartConeScenario.node[0].veinsmobility startTime 1
scalar SmartConeScenario.node[0].veinsmobility totalTime 253
scalar SmartConeScenario.node[0].veinsmobility stopTime 254.64594495952
scalar SmartConeScenario.node[0].veinsmobility arrived 0
scalar SmartConeScenario.node[0].veinsmobility minSpeed 24.570604052671
scalar SmartConeScenario.node[0].veinsmobility maxSpeed 24.700107685616
scalar SmartConeScenario.node[0].veinsmobility totalDistance 6229.1074056229
scalar SmartConeScenario.node[0].veinsmobility totalCO2Emission 927.25370474457
scalar SmartConeScenario.node[2].appl generatedWSMs 1
scalar SmartConeScenario.node[2].appl receivedWSMs 13
scalar SmartConeScenario.node[2].appl generatedBSMs 0
scalar SmartConeScenario.node[2].appl receivedBSMs 0
scalar SmartConeScenario.node[2].appl generatedWSAs 0
scalar SmartConeScenario.node[2].appl receivedWSAs 0
scalar SmartConeScenario.node[2].nic.phy80211p busyTime 1.1937654493062e-05
scalar SmartConeScenario.node[2].nic.mac1609_4 ReceivedUnicastPackets 0
scalar SmartConeScenario.node[2].nic.mac1609_4 ReceivedBroadcasts 13
scalar SmartConeScenario.node[2].nic.mac1609_4 SentPackets 1
scalar SmartConeScenario.node[2].nic.mac1609_4 SNIRLostPackets 0
scalar SmartConeScenario.node[2].nic.mac1609_4 RXTXLostPackets 0
scalar SmartConeScenario.node[2].nic.mac1609_4 TotalLostPackets 0
scalar SmartConeScenario.node[2].nic.mac1609_4 DroppedPacketsInMac 0
scalar SmartConeScenario.node[2].nic.mac1609_4 TooLittleTime 0
scalar SmartConeScenario.node[2].nic.mac1609_4 TimesIntoBackoff 1
scalar SmartConeScenario.node[2].nic.mac1609_4 SlotsBackoff 0
scalar SmartConeScenario.node[2].nic.mac1609_4 NumInternalContention 0
scalar SmartConeScenario.node[2].nic.mac1609_4 totalBusyTime 0.003249
scalar SmartConeScenario.node[2].veinsmobility startTime 2
scalar SmartConeScenario.node[2].veinsmobility totalTime 252
scalar SmartConeScenario.node[2].veinsmobility stopTime 254.64594495952
scalar SmartConeScenario.node[2].veinsmobility arrived 0
scalar SmartConeScenario.node[2].veinsmobility minSpeed 24.539179252014
scalar SmartConeScenario.node[2].veinsmobility maxSpeed 26.160637951821
scalar SmartConeScenario.node[2].veinsmobility totalDistance 6216.1284274655
scalar SmartConeScenario.node[2].veinsmobility totalCO2Emission 916.78202757505
scalar SmartConeScenario.node[20].appl generatedWSMs 1
scalar SmartConeScenario.node[20].appl receivedWSMs 20
scalar SmartConeScenario.node[20].appl generatedBSMs 0
scalar SmartConeScenario.node[20].appl receivedBSMs 0
scalar SmartConeScenario.node[20].appl generatedWSAs 0
scalar SmartConeScenario.node[20].appl receivedWSAs 0
scalar SmartConeScenario.node[20].nic.phy80211p busyTime 2.2644140984122e-05
scalar SmartConeScenario.node[20].nic.mac1609_4 ReceivedUnicastPackets 0
scalar SmartConeScenario.node[20].nic.mac1609_4 ReceivedBroadcasts 20
scalar SmartConeScenario.node[20].nic.mac1609_4 SentPackets 1
scalar SmartConeScenario.node[20].nic.mac1609_4 SNIRLostPackets 3
scalar SmartConeScenario.node[20].nic.mac1609_4 RXTXLostPackets 14
scalar SmartConeScenario.node[20].nic.mac1609_4 TotalLostPackets 17
scalar SmartConeScenario.node[20].nic.mac1609_4 DroppedPacketsInMac 0
scalar SmartConeScenario.node[20].nic.mac1609_4 TooLittleTime 0
scalar SmartConeScenario.node[20].nic.mac1609_4 TimesIntoBackoff 1
scalar SmartConeScenario.node[20].nic.mac1609_4 SlotsBackoff 0
scalar SmartConeScenario.node[20].nic.mac1609_4 NumInternalContention 0
scalar SmartConeScenario.node[20].nic.mac1609_4 totalBusyTime 0.004873000001
scalar SmartConeScenario.node[20].veinsmobility startTime 19
scalar SmartConeScenario.node[20].veinsmobility totalTime 235
scalar SmartConeScenario.node[20].veinsmobility stopTime 254.64594495952
scalar SmartConeScenario.node[20].veinsmobility arrived 0
scalar SmartConeScenario.node[20].veinsmobility minSpeed 13.716693924454
scalar SmartConeScenario.node[20].veinsmobility maxSpeed 14.173595182912
scalar SmartConeScenario.node[20].veinsmobility totalDistance 3315.0510976366
scalar SmartConeScenario.node[20].veinsmobility totalCO2Emission 480.10463758813
scalar SmartConeScenario.node[200].appl generatedWSMs 1
scalar SmartConeScenario.node[200].appl receivedWSMs 26
scalar SmartConeScenario.node[200].appl generatedBSMs 0
scalar SmartConeScenario.node[200].appl receivedBSMs 0
scalar SmartConeScenario.node[200].appl generatedWSAs 0
scalar SmartConeScenario.node[200].appl receivedWSAs 0
scalar SmartConeScenario.node[200].nic.phy80211p busyTime 8.1905392120574e-05
scalar SmartConeScenario.node[200].nic.mac1609_4 ReceivedUnicastPackets 0
scalar SmartConeScenario.node[200].nic.mac1609_4 ReceivedBroadcasts 26
scalar SmartConeScenario.node[200].nic.mac1609_4 SentPackets 1
scalar SmartConeScenario.node[200].nic.mac1609_4 SNIRLostPackets 0
scalar SmartConeScenario.node[200].nic.mac1609_4 RXTXLostPackets 0
scalar SmartConeScenario.node[200].nic.mac1609_4 TotalLostPackets 0
scalar SmartConeScenario.node[200].nic.mac1609_4 DroppedPacketsInMac 0
scalar SmartConeScenario.node[200].nic.mac1609_4 TooLittleTime 0
scalar SmartConeScenario.node[200].nic.mac1609_4 TimesIntoBackoff 1
scalar SmartConeScenario.node[200].nic.mac1609_4 SlotsBackoff 0
scalar SmartConeScenario.node[200].nic.mac1609_4 NumInternalContention 0
scalar SmartConeScenario.node[200].nic.mac1609_4 totalBusyTime 0.006265
scalar SmartConeScenario.node[200].veinsmobility startTime 181
scalar SmartConeScenario.node[200].veinsmobility totalTime 73
scalar SmartConeScenario.node[200].veinsmobility stopTime 254.64594495952
scalar SmartConeScenario.node[200].veinsmobility arrived 0
scalar SmartConeScenario.node[200].veinsmobility minSpeed 17.414971239567
scalar SmartConeScenario.node[200].veinsmobility maxSpeed 17.755864991989
scalar SmartConeScenario.node[200].veinsmobility totalDistance 1283.7799678661
scalar SmartConeScenario.node[200].veinsmobility totalCO2Emission 177.82155567457
scalar SmartConeScenario.node[202].appl generatedWSMs 1
scalar SmartConeScenario.node[202].appl receivedWSMs 26
scalar SmartConeScenario.node[202].appl generatedBSMs 0
scalar SmartConeScenario.node[202].appl receivedBSMs 0
scalar SmartConeScenario.node[202].appl generatedWSAs 0
scalar SmartConeScenario.node[202].appl receivedWSAs 0
scalar SmartConeScenario.node[202].nic.phy80211p busyTime 8.3032852051974e-05
scalar SmartConeScenario.node[202].nic.mac1609_4 ReceivedUnicastPackets 0
scalar SmartConeScenario.node[202].nic.mac1609_4 ReceivedBroadcasts 26
scalar SmartConeScenario.node[202].nic.mac1609_4 SentPackets 1
scalar SmartConeScenario.node[202].nic.mac1609_4 SNIRLostPackets 0
scalar SmartConeScenario.node[202].nic.mac1609_4 RXTXLostPackets 0
scalar SmartConeScenario.node[202].nic.mac1609_4 TotalLostPackets 0
scalar SmartConeScenario.node[202].nic.mac1609_4 DroppedPacketsInMac 0
scalar SmartConeScenario.node[202].nic.mac1609_4 TooLittleTime 0
scalar SmartConeScenario.node[202].nic.mac1609_4 TimesIntoBackoff 1
scalar SmartConeScenario.node[202].nic.mac1609_4 SlotsBackoff 3
scalar SmartConeScenario.node[202].nic.mac1609_4 NumInternalContention 0
scalar SmartConeScenario.node[202].nic.mac1609_4 totalBusyTime 0.006265
scalar SmartConeScenario.node[202].veinsmobility startTime 182
scalar SmartConeScenario.node[202].veinsmobility totalTime 72
scalar SmartConeScenario.node[202].veinsmobility stopTime 254.64594495952
scalar SmartConeScenario.node[202].veinsmobility arrived 0
scalar SmartConeScenario.node[202].veinsmobility minSpeed 17.468244942379
scalar SmartConeScenario.node[202].veinsmobility maxSpeed 18.495559027958
scalar SmartConeScenario.node[202].veinsmobility totalDistance 1272.2918541138
scalar SmartConeScenario.node[202].veinsmobility totalCO2Emission 171.33280282055
scalar SmartConeScenario.node[204].appl generatedWSMs 1
scalar SmartConeScenario.node[204].appl receivedWSMs 26
scalar SmartConeScenario.node[204].appl generatedBSMs 0
scalar SmartConeScenario.node[204].appl receivedBSMs 0
scalar SmartConeScenario.node[204].appl generatedWSAs 0
scalar SmartConeScenario.node[204].appl receivedWSAs 0
scalar SmartConeScenario.node[204].nic.phy80211p busyTime 8.5383527723438e-05
scalar SmartConeScenario.node[204].nic.mac1609_4 ReceivedUnicastPackets 0
scalar SmartConeScenario.node[204].nic.mac1609_4 ReceivedBroadcasts 26
scalar SmartConeScenario.node[204].nic.mac1609_4 SentPackets 1
scalar SmartConeScenario.node[204].nic.mac1609_4 SNIRLostPackets 0
scalar SmartConeScenario.node[204].nic.mac1609_4 RXTXLostPackets 0
scalar SmartConeScenario.node[204].nic.mac1609_4 TotalLostPackets 0
scalar SmartConeScenario.node[204].nic.mac1609_4 DroppedPacketsInMac 0
scalar SmartConeScenario.node[204].nic.mac1609_4 TooLittleTime 0
scalar SmartConeScenario.node[204].nic.mac1609_4 TimesIntoBackoff 1
scalar SmartConeScenario.node[204].nic.mac1609_4 SlotsBackoff 2
scalar SmartConeScenario.node[204].nic.mac1609_4 NumInternalContention 0
scalar SmartConeScenario.node[204].nic.mac1609_4 totalBusyTime 0.006265
scalar SmartConeScenario.node[204].veinsmobility startTime 184
scalar SmartConeScenario.node[204].veinsmobility totalTime 70
scalar SmartConeScenario.node[204].veinsmobility stopTime 254.64594495952
scalar SmartConeScenario.node[204].veinsmobility arrived 0
scalar SmartConeScenario.node[204].veinsmobility minSpeed 17.48341079644
scalar SmartConeScenario.node[204].veinsmobility maxSpeed 19.41631279612
scalar SmartConeScenario.node[204].veinsmobility totalDistance 1242.8596609079
scalar SmartConeScenario.node[204].veinsmobility totalCO2Emission 163.60167048564
scalar SmartConeScenario.node[206].appl generatedWSMs 1
scalar SmartConeScenario.node[206].appl receivedWSMs 26
scalar SmartConeScenario.node[206].appl generatedBSMs 0
scalar SmartConeScenario.node[206].appl receivedBSMs 0
scalar SmartConeScenario.node[206].appl generatedWSAs 0
scalar SmartConeScenario.node[206].appl receivedWSAs 0
scalar SmartConeScenario.node[206].nic.phy80211p busyTime 8.7871177293235e-05
scalar SmartConeScenario.node[206].nic.mac1609_4 ReceivedUnicastPackets 0
scalar SmartConeScenario.node[206].nic.mac1609_4 ReceivedBroadcasts 26
scalar SmartConeScenario.node[206].nic.mac1609_4 SentPackets 1
scalar SmartConeScenario.node[206].nic.mac1609_4 SNIRLostPackets 0
scalar SmartConeScenario.node[206].nic.mac1609_4 RXTXLostPackets 0
scalar SmartConeScenario.node[206].nic.mac1609_4 TotalLostPackets 0
scalar SmartConeScenario.node[206].nic.mac1609_4 DroppedPacketsInMac 0
scalar SmartConeScenario.node[206].nic.mac1609_4 TooLittleTime 0
scalar SmartConeScenario.node[206].nic.mac1609_4 TimesIntoBackoff 1
scalar SmartConeScenario.node[206].nic.mac1609_4 SlotsBackoff 3
scalar SmartConeScenario.node[206].nic.mac1609_4 NumInternalContention 0
scalar SmartConeScenario.node[206].nic.mac1609_4 totalBusyTime 0.006265
scalar SmartConeScenario.node[206].veinsmobility startTime 186
scalar SmartConeScenario.node[206].veinsmobility totalTime 68
scalar SmartConeScenario.node[206].veinsmobility stopTime 254.64594495952
scalar SmartConeScenario.node[206].veinsmobility arrived 0
scalar SmartConeScenario.node[206].veinsmobility minSpeed 17.508705958476
scalar SmartConeScenario.node[206].veinsmobility maxSpeed 20.090916244501
scalar SmartConeScenario.node[206].veinsmobility totalDistance 1213.0638890312
scalar SmartConeScenario.node[206].veinsmobility totalCO2Emission 155.33417693025
scalar SmartConeScenario.node[208].appl generatedWSMs 1
scalar SmartConeScenario.node[208].appl receivedWSMs 25
scalar SmartConeScenario.node[208].appl generatedBSMs 0
scalar SmartConeScenario.node[208].appl receivedBSMs 0
scalar SmartConeScenario.node[208].appl generatedWSAs 0
scalar SmartConeScenario.node[208].appl receivedWSAs 0
scalar SmartConeScenario.node[208].nic.phy80211p busyTime 8.7027050235727e-05
scalar SmartConeScenario.node[208].nic.mac1609_4 ReceivedUnicastPackets 0
scalar SmartConeScenario.node[208].nic.mac1609_4 ReceivedBroadcasts 25
scalar SmartConeScenario.node[208].nic.mac1609_4 SentPackets 1
scalar SmartConeScenario.node[208].nic.mac1609_4 SNIRLostPackets 0
scalar SmartConeScenario.node[208].nic.mac1609_4 RXTXLostPackets 0
scalar SmartConeScenario.node[208].nic.mac1609_4 TotalLostPackets 0
scalar SmartConeScenario.node[208].nic.mac1609_4 DroppedPacketsInMac 0
scalar SmartConeScenario.node[208].nic.mac1609_4 TooLittleTime 0
scalar SmartConeScenario.node[208].nic.mac1609_4 TimesIntoBackoff 1
scalar SmartConeScenario.node[208].nic.mac1609_4 SlotsBackoff 2
scalar SmartConeScenario.node[208].nic.mac1609_4 NumInternalContention 0
scalar SmartConeScenario.node[208].nic.mac1609_4 totalBusyTime 0.006033
scalar SmartConeScenario.node[208].veinsmobility startTime 188
scalar SmartConeScenario.node[208].veinsmobility totalTime 66
scalar SmartConeScenario.node[208].veinsmobility stopTime 254.64594495952
scalar SmartConeScenario.node[208].veinsmobility arrived 0
scalar SmartConeScenario.node[208].veinsmobility minSpeed 17.427609599395
scalar SmartConeScenario.node[208].veinsmobility maxSpeed 20.685729632229
scalar SmartConeScenario.node[208].veinsmobility totalDistance 1183.0624393865
scalar SmartConeScenario.node[208].veinsmobility totalCO2Emission 148.32952398646
scalar SmartConeScenario.node[210].appl generatedWSMs 1
scalar SmartConeScenario.node[210].appl receivedWSMs 38
scalar SmartConeScenario.node[210].appl generatedBSMs 0
scalar SmartConeScenario.node[210].appl receivedBSMs 0
scalar SmartConeScenario.node[210].appl generatedWSAs 0
scalar SmartConeScenario.node[210].appl receivedWSAs 0
scalar SmartConeScenario.node[210].nic.phy80211p busyTime 0.00013637359629471
scalar SmartConeScenario.node[210].nic.mac1609_4 ReceivedUnicastPackets 0
scalar SmartConeScenario.node[210].nic.mac1609_4 ReceivedBroadcasts 38
scalar SmartConeScenario.node[210].nic.mac1609_4 SentPackets 1
scalar SmartConeScenario.node[210].nic.mac1609_4 SNIRLostPackets 0
scalar SmartConeScenario.node[210].nic.mac1609_4 RXTXLostPackets 0
scalar SmartConeScenario.node[210].nic.mac1609_4 TotalLostPackets 0
scalar SmartConeScenario.node[210].nic.mac1609_4 DroppedPacketsInMac 0
scalar SmartConeScenario.node[210].nic.mac1609_4 TooLittleTime 0
scalar SmartConeScenario.node[210].nic.mac1609_4 TimesIntoBackoff 1
scalar SmartConeScenario.node[210].nic.mac1609_4 SlotsBackoff 0
scalar SmartConeScenario.node[210].nic.mac1609_4 NumInternalContention 0
scalar SmartConeScenario.node[210].nic.mac1609_4 totalBusyTime 0.009049
scalar SmartConeScenario.node[210].veinsmobility startTime 190
scalar SmartConeScenario.node[210].veinsmobility totalTime 64
scalar SmartConeScenario.node[210].veinsmobility stopTime 254.64594495952
scalar SmartConeScenario.node[210].veinsmobility arrived 0
scalar SmartConeScenario.node[210].veinsmobility minSpeed 12.448126661005
scalar SmartConeScenario.node[210].veinsmobility maxSpeed 12.575921384416
scalar SmartConeScenario.node[210].veinsmobility totalDistance 800.7749794909
scalar SmartConeScenario.node[210].veinsmobility totalCO2Emission 119.33504641344
scalar SmartConeScenario.node[212].appl generatedWSMs 1
scalar SmartConeScenario.node[212].appl receivedWSMs 40
scalar SmartConeScenario.node[212].appl generatedBSMs 0
scalar SmartConeScenario.node[212].appl receivedBSMs 0
scalar SmartConeScenario.node[212].appl generatedWSAs 0
scalar SmartConeScenario.node[212].appl receivedWSAs 0
scalar SmartConeScenario.node[212].nic.phy80211p busyTime 0.00014580661825198
scalar SmartConeScenario.node[212].nic.mac1609_4 ReceivedUnicastPackets 0
scalar SmartConeScenario.node[212].nic.mac1609_4 ReceivedBroadcasts 40
scalar SmartConeScenario.node[212].nic.mac1609_4 SentPackets 1
scalar SmartConeScenario.node[212].nic.mac1609_4 SNIRLostPackets 0
scalar SmartConeScenario.node[212].nic.mac1609_4 RXTXLostPackets 0
scalar SmartConeScenario.node[212].nic.mac1609_4 TotalLostPackets 0
scalar SmartConeScenario.node[212].nic.mac1609_4 DroppedPacketsInMac 0
scalar SmartConeScenario.node[212].nic.mac1609_4 TooLittleTime 0
scalar SmartConeScenario.node[212].nic.mac1609_4 TimesIntoBackoff 1
scalar SmartConeScenario.node[212].nic.mac1609_4 SlotsBackoff 1
scalar SmartConeScenario.node[212].nic.mac1609_4 NumInternalContention 0
scalar SmartConeScenario.node[212].nic.mac1609_4 totalBusyTime 0.009513
scalar SmartConeScenario.node[212].veinsmobility startTime 191
scalar SmartConeScenario.node[212].veinsmobility totalTime 63
scalar SmartConeScenario.node[212].veinsmobility stopTime 254.64594495952
scalar SmartConeScenario.node[212].veinsmobility arrived 0
scalar SmartConeScenario.node[212].veinsmobility minSpeed 8.9897159230092
scalar SmartConeScenario.node[212].veinsmobility maxSpeed 12.580839067772
scalar SmartConeScenario.node[212].veinsmobility totalDistance 770.78486238081
scalar SmartConeScenario.node[212].veinsmobility totalCO2Emission 125.57663428361
scalar SmartConeScenario.node[214].appl generatedWSMs 1
scalar SmartConeScenario.node[214].appl receivedWSMs 40
scalar SmartConeScenario.node[214].appl generatedBSMs 0
scalar SmartConeScenario.node[214].appl receivedBSMs 0
scalar SmartConeScenario.node[214].appl generatedWSAs 0
scalar SmartConeScenario.node[214].appl receivedWSAs 0
scalar SmartConeScenario.node[214].nic.phy80211p busyTime 0.00015053707110976
scalar SmartConeScenario.node[214].nic.mac1609_4 ReceivedUnicastPackets 0
scalar SmartConeScenario.node[214].nic.mac1609_4 ReceivedBroadcasts 40
scalar SmartConeScenario.node[214].nic.mac1609_4 SentPackets 1
scalar SmartConeScenario.node[214].nic.mac1609_4 SNIRLostPackets 0
scalar SmartConeScenario.node[214].nic.mac1609_4 RXTXLostPackets 0
scalar SmartConeScenario.node[214].nic.mac1609_4 TotalLostPackets 0
scalar SmartConeScenario.node[214].nic.mac1609_4 DroppedPacketsInMac 0
scalar SmartConeScenario.node[214].nic.mac1609_4 TooLittleTime 0
scalar SmartConeScenario.node[214].nic.mac1609_4 TimesIntoBackoff 1
scalar SmartConeScenario.node[214].nic.mac1609_4 SlotsBackoff 0
scalar SmartConeScenario.node[214].nic.mac1609_4 NumInternalContention 0
scalar SmartConeScenario.node[214].nic.mac1609_4 totalBusyTime 0.009513
scalar SmartConeScenario.node[214].veinsmobility startTime 193
scalar SmartConeScenario.node[214].veinsmobility totalTime 61
scalar SmartConeScenario.node[214].veinsmobility stopTime 254.64594495952
scalar SmartConeScenario.node[214].veinsmobility arrived 0
scalar SmartConeScenario.node[214].veinsmobility minSpeed 9.851966562999
scalar SmartConeScenario.node[214].veinsmobility maxSpeed 12.632770251615
scalar SmartConeScenario.node[214].veinsmobility totalDistance 748.57254545734
scalar SmartConeScenario.node[214].veinsmobility totalCO2Emission 120.06984550406
scalar SmartConeScenario.node[216].appl generatedWSMs 1
scalar SmartConeScenario.node[216].appl receivedWSMs 40
scalar SmartConeScenario.node[216].appl generatedBSMs 0
scalar SmartConeScenario.node[216].appl receivedBSMs 0
scalar SmartConeScenario.node[216].appl generatedWSAs 0
scalar SmartConeScenario.node[216].appl receivedWSAs 0
scalar SmartConeScenario.node[216].nic.phy80211p busyTime 0.00015558475947187
scalar SmartConeScenario.node[216].nic.mac1609_4 ReceivedUnicastPackets 0
scalar SmartConeScenario.node[216].nic.mac1609_4 ReceivedBroadcasts 40
scalar SmartConeScenario.node[216].nic.mac1609_4 SentPackets 1
scalar SmartConeScenario.node[216].nic.mac1609_4 SNIRLostPackets 0
scalar SmartConeScenario.node[216].nic.mac1609_4 RXTXLostPackets 0
scalar SmartConeScenario.node[216].nic.mac1609_4 TotalLostPackets 0
scalar SmartConeScenario.node[216].nic.mac1609_4 DroppedPacketsInMac 0
scalar SmartConeScenario.node[216].nic.mac1609_4 TooLittleTime 0
scalar SmartConeScenario.node[216].nic.mac1609_4 TimesIntoBackoff 1
scalar SmartConeScenario.node[216].nic.mac1609_4 SlotsBackoff 0
scalar SmartConeScenario.node[216].nic.mac1609_4 NumInternalContention 0
scalar SmartConeScenario.node[216].nic.mac1609_4 totalBusyTime 0.009513
scalar SmartConeScenario.node[216].veinsmobility startTime 195
scalar SmartConeScenario.node[216].veinsmobility totalTime 59
scalar SmartConeScenario.node[216].veinsmobility stopTime 254.64594495952
scalar SmartConeScenario.node[216].veinsmobility arrived 0
scalar SmartConeScenario.node[216].veinsmobility minSpeed 10.494069548626
scalar SmartConeScenario.node[216].veinsmobility maxSpeed 12.598400729264
scalar SmartConeScenario.node[216].veinsmobility totalDistance 726.00762442756
scalar SmartConeScenario.node[216].veinsmobility totalCO2Emission 114.90853082306
scalar SmartConeScenario.node[218].appl generatedWSMs 1
scalar SmartConeScenario.node[218].appl receivedWSMs 42
scalar SmartConeScenario.node[218].appl generatedBSMs 0
scalar SmartConeScenario.node[218].appl receivedBSMs 0
scalar SmartConeScenario.node[218].appl generatedWSAs 0
scalar SmartConeScenario.node[218].appl receivedWSAs 0
scalar SmartConeScenario.node[218].nic.phy80211p busyTime 0.00016903183748383
scalar SmartConeScenario.node[218].nic.mac1609_4 ReceivedUnicastPackets 0
scalar SmartConeScenario.node[218].nic.mac1609_4 ReceivedBroadcasts 42
scalar SmartConeScenario.node[218].nic.mac1609_4 SentPackets 1
scalar SmartConeScenario.node[218].nic.mac1609_4 SNIRLostPackets 0
scalar SmartConeScenario.node[218].nic.mac1609_4 RXTXLostPackets 0
scalar SmartConeScenario.node[218].nic.mac1609_4 TotalLostPackets 0
scalar SmartConeScenario.node[218].nic.mac1609_4 DroppedPacketsInMac 0
scalar SmartConeScenario.node[218].nic.mac1609_4 TooLittleTime 0
scalar SmartConeScenario.node[218].nic.mac1609_4 TimesIntoBackoff 1
scalar SmartConeScenario.node[218].nic.mac1609_4 SlotsBackoff 2
scalar SmartConeScenario.node[218].nic.mac1609_4 NumInternalContention 0
scalar SmartConeScenario.node[218].nic.mac1609_4 totalBusyTime 0.009977
scalar SmartConeScenario.node[218].veinsmobility startTime 197
scalar SmartConeScenario.node[218].veinsmobility totalTime 57
scalar SmartConeScenario.node[218].veinsmobility stopTime 254.64594495952
scalar SmartConeScenario.node[218].veinsmobility arrived 0
scalar SmartConeScenario.node[218].veinsmobility minSpeed 7.8408383809442
scalar SmartConeScenario.node[218].veinsmobility maxSpeed 12.657915537943
scalar SmartConeScenario.node[218].veinsmobility totalDistance 687.09795776692
scalar SmartConeScenario.node[218].veinsmobility totalCO2Emission 116.32849866376
scalar SmartConeScenario.node[22].appl generatedWSMs 1
scalar SmartConeScenario.node[22].appl receivedWSMs 21
scalar SmartConeScenario.node[22].appl generatedBSMs 0
scalar SmartConeScenario.node[22].appl receivedBSMs 0
scalar SmartConeScenario.node[22].appl generatedWSAs 0
scalar SmartConeScenario.node[22].appl receivedWSAs 0
scalar SmartConeScenario.node[22].nic.phy80211p busyTime 2.372936809524e-05
scalar SmartConeScenario.node[22].nic.mac1609_4 ReceivedUnicastPackets 0
scalar SmartConeScenario.node[22].nic.mac1609_4 ReceivedBroadcasts 21
scalar SmartConeScenario.node[22].nic.mac1609_4 SentPackets 1
scalar SmartConeScenario.node[22].nic.mac1609_4 SNIRLostPackets 3
scalar SmartConeScenario.node[22].nic.mac1609_4 RXTXLostPackets 16
scalar SmartConeScenario.node[22].nic.mac1609_4 TotalLostPackets 19
scalar SmartConeScenario.node[22].nic.mac1609_4 DroppedPacketsInMac 0
scalar SmartConeScenario.node[22].nic.mac1609_4 TooLittleTime 0
scalar SmartConeScenario.node[22].nic.mac1609_4 TimesIntoBackoff 1
scalar SmartConeScenario.node[22].nic.mac1609_4 SlotsBackoff 1
scalar SmartConeScenario.node[22].nic.mac1609_4 NumInternalContention 0
scalar SmartConeScenario.node[22].nic.mac1609_4 totalBusyTime 0.005105145961
scalar SmartConeScenario.node[22].veinsmobility startTime 20
scalar SmartConeScenario.node[22].veinsmobility totalTime 234
scalar SmartConeScenario.node[22].veinsmobility stopTime 254.64594495952
scalar SmartConeScenario.node[22].veinsmobility arrived 0
scalar SmartConeScenario.node[22].veinsmobility minSpeed 14.020835379448
scalar SmartConeScenario.node[22].veinsmobility maxSpeed 24.382803434596
scalar SmartConeScenario.node[22].veinsmobility totalDistance 4519.0098202083
scalar SmartConeScenario.node[22].veinsmobility totalCO2Emission 706.06525902927
scalar SmartConeScenario.node[220].appl generatedWSMs 1
scalar SmartConeScenario.node[220].appl receivedWSMs 43
scalar SmartConeScenario.node[220].appl generatedBSMs 0
scalar SmartConeScenario.node[220].appl receivedBSMs 0
scalar SmartConeScenario.node[220].appl generatedWSAs 0
scalar SmartConeScenario.node[220].appl receivedWSAs 0
scalar SmartConeScenario.node[220].nic.phy80211p busyTime 0.00017927631577209
scalar SmartConeScenario.node[220].nic.mac1609_4 ReceivedUnicastPackets 0
scalar SmartConeScenario.node[220].nic.mac1609_4 ReceivedBroadcasts 43
scalar SmartConeScenario.node[220].nic.mac1609_4 SentPackets 1
scalar SmartConeScenario.node[220].nic.mac1609_4 SNIRLostPackets 0
scalar SmartConeScenario.node[220].nic.mac1609_4 RXTXLostPackets 0
scalar SmartConeScenario.node[220].nic.mac1609_4 TotalLostPackets 0
scalar SmartConeScenario.node[220].nic.mac1609_4 DroppedPacketsInMac 0
scalar SmartConeScenario.node[220].nic.mac1609_4 TooLittleTime 0
scalar SmartConeScenario.node[220].nic.mac1609_4 TimesIntoBackoff 1
scalar SmartConeScenario.node[220].nic.mac1609_4 SlotsBackoff 1
scalar SmartConeScenario.node[220].nic.mac1609_4 NumInternalContention 0
scalar SmartConeScenario.node[220].nic.mac1609_4 totalBusyTime 0.010209
scalar SmartConeScenario.node[220].veinsmobility startTime 199
scalar SmartConeScenario.node[220].veinsmobility totalTime 55
scalar SmartConeScenario.node[220].veinsmobility stopTime 254.64594495952
scalar SmartConeScenario.node[220].veinsmobility arrived 0
scalar SmartConeScenario.node[220].veinsmobility minSpeed 8.4429386201581
scalar SmartConeScenario.node[220].veinsmobility maxSpeed 12.582834206826
scalar SmartConeScenario.node[220].veinsmobility totalDistance 664.06423222364
scalar SmartConeScenario.node[220].veinsmobility totalCO2Emission 111.15678786722
scalar SmartConeScenario.node[222].appl generatedWSMs 1
scalar SmartConeScenario.node[222].appl receivedWSMs 44
scalar SmartConeScenario.node[222].appl generatedBSMs 0
scalar SmartConeScenario.node[222].appl receivedBSMs 0
scalar SmartConeScenario.node[222].appl generatedWSAs 0
scalar SmartConeScenario.node[222].appl receivedWSAs 0
scalar SmartConeScenario.node[222].nic.phy80211p busyTime 0.00018680251586025
scalar SmartConeScenario.node[222].nic.mac1609_4 ReceivedUnicastPackets 0
scalar SmartConeScenario.node[222].nic.mac1609_4 ReceivedBroadcasts 44
scalar SmartConeScenario.node[222].nic.mac1609_4 SentPackets 1
scalar SmartConeScenario.node[222].nic.mac1609_4 SNIRLostPackets 0
scalar SmartConeScenario.node[222].nic.mac1609_4 RXTXLostPackets 0
scalar SmartConeScenario.node[222].nic.mac1609_4 TotalLostPackets 0
scalar SmartConeScenario.node[222].nic.mac1609_4 DroppedPacketsInMac 0
scalar SmartConeScenario.node[222].nic.mac1609_4 TooLittleTime 0
scalar SmartConeScenario.node[222].nic.mac1609_4 TimesIntoBackoff 1
scalar SmartConeScenario.node[222].nic.mac1609_4 SlotsBackoff 3
scalar SmartConeScenario.node[222].nic.mac1609_4 NumInternalContention 0
scalar SmartConeScenario.node[222].nic.mac1609_4 totalBusyTime 0.010441
scalar SmartConeScenario.node[222].veinsmobility startTime 200
scalar SmartConeScenario.node[222].veinsmobility totalTime 54
scalar SmartConeScenario.node[222].veinsmobility stopTime 254.64594495952
scalar SmartConeScenario.node[222].veinsmobility arrived 0
scalar SmartConeScenario.node[222].veinsmobility minSpeed 8.2843708245445
scalar SmartConeScenario.node[222].veinsmobility maxSpeed 12.615033591865
scalar SmartConeScenario.node[222].veinsmobility totalDistance 649.21743466688
scalar SmartConeScenario.node[222].veinsmobility totalCO2Emission 109.59912646759
scalar SmartConeScenario.node[224].appl generatedWSMs 1
scalar SmartConeScenario.node[224].appl receivedWSMs 43
scalar SmartConeScenario.node[224].appl generatedBSMs 0
scalar SmartConeScenario.node[224].appl receivedBSMs 0
scalar SmartConeScenario.node[224].appl generatedWSAs 0
scalar SmartConeScenario.node[224].appl receivedWSAs 0
scalar SmartConeScenario.node[224].nic.phy80211p busyTime 0.00018949227728118
scalar SmartConeScenario.node[224].nic.mac1609_4 ReceivedUnicastPackets 0
scalar SmartConeScenario.node[224].nic.mac1609_4 ReceivedBroadcasts 43
scalar SmartConeScenario.node[224].nic.mac1609_4 SentPackets 1
scalar SmartConeScenario.node[224].nic.mac1609_4 SNIRLostPackets 0
scalar SmartConeScenario.node[224].nic.mac1609_4 RXTXLostPackets 0
scalar SmartConeScenario.node[224].nic.mac1609_4 TotalLostPackets 0
scalar SmartConeScenario.node[224].nic.mac1609_4 DroppedPacketsInMac 0
scalar SmartConeScenario.node[224].nic.mac1609_4 TooLittleTime 0
scalar SmartConeScenario.node[224].nic.mac1609_4 TimesIntoBackoff 1
scalar SmartConeScenario.node[224].nic.mac1609_4 SlotsBackoff 3
scalar SmartConeScenario.node[224].nic.mac1609_4 NumInternalContention 0
scalar SmartConeScenario.node[224].nic.mac1609_4 totalBusyTime 0.010209
scalar SmartConeScenario.node[224].veinsmobility startTime 202
scalar SmartConeScenario.node[224].veinsmobility totalTime 52
scalar SmartConeScenario.node[224].veinsmobility stopTime 254.64594495952
scalar SmartConeScenario.node[224].veinsmobility arrived 0
scalar SmartConeScenario.node[224].veinsmobility minSpeed 9.0616504581266
scalar SmartConeScenario.node[224].veinsmobility maxSpeed 12.601414005889
scalar SmartConeScenario.node[224].veinsmobility totalDistance 627.17126446268
scalar SmartConeScenario.node[224].veinsmobility totalCO2Emission 104.30789612475
scalar SmartConeScenario.node[226].appl generatedWSMs 1
scalar SmartConeScenario.node[226].appl receivedWSMs 29
scalar SmartConeScenario.node[226].appl generatedBSMs 0
scalar SmartConeScenario.node[226].appl receivedBSMs 0
scalar SmartConeScenario.node[226].appl generatedWSAs 0
scalar SmartConeScenario.node[226].appl receivedWSAs 0
scalar SmartConeScenario.node[226].nic.phy80211p busyTime 0.00013284380428437
scalar SmartConeScenario.node[226].nic.mac1609_4 ReceivedUnicastPackets 0
scalar SmartConeScenario.node[226].nic.mac1609_4 ReceivedBroadcasts 29
scalar SmartConeScenario.node[226].nic.mac1609_4 SentPackets 1
scalar SmartConeScenario.node[226].nic.mac1609_4 SNIRLostPackets 0
scalar SmartConeScenario.node[226].nic.mac1609_4 RXTXLostPackets 0
scalar SmartConeScenario.node[226].nic.mac1609_4 TotalLostPackets 0
scalar SmartConeScenario.node[226].nic.mac1609_4 DroppedPacketsInMac 0
scalar SmartConeScenario.node[226].nic.mac1609_4 TooLittleTime 0
scalar SmartConeScenario.node[226].nic.mac1609_4 TimesIntoBackoff 1
scalar SmartConeScenario.node[226].nic.mac1609_4 SlotsBackoff 2
scalar SmartConeScenario.node[226].nic.mac1609_4 NumInternalContention 0
scalar SmartConeScenario.node[226].nic.mac1609_4 totalBusyTime 0.006961
scalar SmartConeScenario.node[226].veinsmobility startTime 204
scalar SmartConeScenario.node[226].veinsmobility totalTime 50
scalar SmartConeScenario.node[226].veinsmobility stopTime 254.64594495952
scalar SmartConeScenario.node[226].veinsmobility arrived 0
scalar SmartConeScenario.node[226].veinsmobility minSpeed 16.264127208337
scalar SmartConeScenario.node[226].veinsmobility maxSpeed 17.160261063147
scalar SmartConeScenario.node[226].veinsmobility totalDistance 821.99194548274
scalar SmartConeScenario.node[226].veinsmobility totalCO2Emission 110.0736031431
scalar SmartConeScenario.node[228].appl generatedWSMs 1
scalar SmartConeScenario.node[228].appl receivedWSMs 29
scalar SmartConeScenario.node[228].appl generatedBSMs 0
scalar SmartConeScenario.node[228].appl receivedBSMs 0
scalar SmartConeScenario.node[228].appl generatedWSAs 0
scalar SmartConeScenario.node[228].appl receivedWSAs 0
scalar SmartConeScenario.node[228].nic.phy80211p busyTime 0.00013830546421902
scalar SmartConeScenario.node[228].nic.mac1609_4 ReceivedUnicastPackets 0
scalar SmartConeScenario.node[228].nic.mac1609_4 ReceivedBroadcasts 29
scalar SmartConeScenario.node[228].nic.mac1609_4 SentPackets 1
scalar SmartConeScenario.node[228].nic.mac1609_4 SNIRLostPackets 0
scalar SmartConeScenario.node[228].nic.mac1609_4 RXTXLostPackets 0
scalar SmartConeScenario.node[228].nic.mac1609_4 TotalLostPackets 0
scalar SmartConeScenario.node[228].nic.mac1609_4 DroppedPacketsInMac 0
scalar SmartConeScenario.node[228].nic.mac1609_4 TooLittleTime 0
scalar SmartConeScenario.node[228].nic.mac1609_4 TimesIntoBackoff 1
scalar SmartConeScenario.node[228].nic.mac1609_4 SlotsBackoff 3
scalar SmartConeScenario.node[228].nic.mac1609_4 NumInternalContention 0
scalar SmartConeScenario.node[228].nic.mac1609_4 totalBusyTime 0.006961
scalar SmartConeScenario.node[228].veinsmobility startTime 206
scalar SmartConeScenario.node[228].veinsmobility totalTime 48
scalar SmartConeScenario.node[228].veinsmobility stopTime 254.64594495952
scalar SmartConeScenario.node[228].veinsmobility arrived 0
scalar SmartConeScenario.node[228].veinsmobility minSpeed 16.262179567019
scalar SmartConeScenario.node[228].veinsmobility maxSpeed 17.782423138817
scalar SmartConeScenario.node[228].veinsmobility totalDistance 793.76026417049
scalar SmartConeScenario.node[228].veinsmobility totalCO2Emission 102.83751241837
scalar SmartConeScenario.node[230].appl generatedWSMs 1
scalar SmartConeScenario.node[230].appl receivedWSMs 30
scalar SmartConeScenario.node[230].appl generatedBSMs 0
scalar SmartConeScenario.node[230].appl receivedBSMs 0
scalar SmartConeScenario.node[230].appl generatedWSAs 0
scalar SmartConeScenario.node[230].appl receivedWSAs 0
scalar SmartConeScenario.node[230].nic.phy80211p busyTime 0.00014920911144665
scalar SmartConeScenario.node[230].nic.mac1609_4 ReceivedUnicastPackets 0
scalar SmartConeScenario.node[230].nic.mac1609_4 ReceivedBroadcasts 30
scalar SmartConeScenario.node[230].nic.mac1609_4 SentPackets 1
scalar SmartConeScenario.node[230].nic.mac1609_4 SNIRLostPackets 0
scalar SmartConeScenario.node[230].nic.mac1609_4 RXTXLostPackets 0
scalar SmartConeScenario.node[230].nic.mac1609_4 TotalLostPackets 0
scalar SmartConeScenario.node[230].nic.mac1609_4 DroppedPacketsInMac 0
scalar SmartConeScenario.node[230].nic.mac1609_4 TooLittleTime 0
scalar SmartConeScenario.node[230].nic.mac1609_4 TimesIntoBackoff 1
scalar SmartConeScenario.node[230].nic.mac1609_4 SlotsBackoff 0
scalar SmartConeScenario.node[230].nic.mac1609_4 NumInternalContention 0
scalar SmartConeScenario.node[230].nic.mac1609_4 totalBusyTime 0.007193
scalar SmartConeScenario.node[230].veinsmobility startTime 208
scalar SmartConeScenario.node[230].veinsmobility totalTime 46
scalar SmartConeScenario.node[230].veinsmobility stopTime 254.64594495952
scalar SmartConeScenario.node[230].veinsmobility arrived 0
scalar SmartConeScenario.node[230].veinsmobility minSpeed 15.075413328157
scalar SmartConeScenario.node[230].veinsmobility maxSpeed 16.468909889126
scalar SmartConeScenario.node[230].veinsmobility totalDistance 745.28140653976
scalar SmartConeScenario.node[230].veinsmobility totalCO2Emission 108.03492590548
scalar SmartConeScenario.node[232].appl generatedWSMs 1
scalar SmartConeScenario.node[232].appl receivedWSMs 30
scalar SmartConeScenario.node[232].appl generatedBSMs 0
scalar SmartConeScenario.node[232].appl receivedBSMs 0
scalar SmartConeScenario.node[232].appl generatedWSAs 0
scalar SmartConeScenario.node[232].appl receivedWSAs 0
scalar SmartConeScenario.node[232].nic.phy80211p busyTime 0.00015247794751914
scalar SmartConeScenario.node[232].nic.mac1609_4 ReceivedUnicastPackets 0
scalar SmartConeScenario.node[232].nic.mac1609_4 ReceivedBroadcasts 30
scalar SmartConeScenario.node[232].nic.mac1609_4 SentPackets 1
scalar SmartConeScenario.node[232].nic.mac1609_4 SNIRLostPackets 0
scalar SmartConeScenario.node[232].nic.mac1609_4 RXTXLostPackets 0
scalar SmartConeScenario.node[232].nic.mac1609_4 TotalLostPackets 0
scalar SmartConeScenario.node[232].nic.mac1609_4 DroppedPacketsInMac 0
scalar SmartConeScenario.node[232].nic.mac1609_4 TooLittleTime 0
scalar SmartConeScenario.node[232].nic.mac1609_4 TimesIntoBackoff 1
scalar SmartConeScenario.node[232].nic.mac1609_4 SlotsBackoff 2
scalar SmartConeScenario.node[232].nic.mac1609_4 NumInternalContention 0
scalar SmartConeScenario.node[232].nic.mac1609_4 totalBusyTime 0.007193
scalar SmartConeScenario.node[232].veinsmobility startTime 209
scalar SmartConeScenario.node[232].veinsmobility totalTime 45
scalar SmartConeScenario.node[232].veinsmobility stopTime 254.64594495952
scalar SmartConeScenario.node[232].veinsmobility arrived 0
scalar SmartConeScenario.node[232].veinsmobility minSpeed 15.851319847176
scalar SmartConeScenario.node[232].veinsmobility maxSpeed 16.42320765275
scalar SmartConeScenario.node[232].veinsmobility totalDistance 732.50802746316
scalar SmartConeScenario.node[232].veinsmobility totalCO2Emission 102.98321596219
scalar SmartConeScenario.node[234].appl generatedWSMs 1
scalar SmartConeScenario.node[234].appl receivedWSMs 32
scalar SmartConeScenario.node[234].appl generatedBSMs 0
scalar SmartConeScenario.node[234].appl receivedBSMs 0
scalar SmartConeScenario.node[234].appl generatedWSAs 0
scalar SmartConeScenario.node[234].appl receivedWSAs 0
scalar SmartConeScenario.node[234].nic.phy80211p busyTime 0.00017009598501957
scalar SmartConeScenario.node[234].nic.mac1609_4 ReceivedUnicastPackets 0
scalar SmartConeScenario.node[234].nic.mac1609_4 ReceivedBroadcasts 32
scalar SmartConeScenario.node[234].nic.mac1609_4 SentPackets 1
scalar SmartConeScenario.node[234].nic.mac1609_4 SNIRLostPackets 0
scalar SmartConeScenario.node[234].nic.mac1609_4 RXTXLostPackets 0
scalar SmartConeScenario.node[234].nic.mac1609_4 TotalLostPackets 0
scalar SmartConeScenario.node[234].nic.mac1609_4 DroppedPacketsInMac 0
scalar SmartConeScenario.node[234].nic.mac1609_4 TooLittleTime 0
scalar SmartConeScenario.node[234].nic.mac1609_4 TimesIntoBackoff 1
scalar SmartConeScenario.node[234].nic.mac1609_4 SlotsBackoff 2
scalar SmartConeScenario.node[234].nic.mac1609_4 NumInternalContention 0
scalar SmartConeScenario.node[234].nic.mac1609_4 totalBusyTime 0.007657
scalar SmartConeScenario.node[234].veinsmobility startTime 211
scalar SmartConeScenario.node[234].veinsmobility totalTime 43
scalar SmartConeScenario.node[234].veinsmobility stopTime 254.64594495952
scalar SmartConeScenario.node[234].veinsmobility arrived 0
scalar SmartConeScenario.node[234].veinsmobility minSpeed 12.944016188414
scalar SmartConeScenario.node[234].veinsmobility maxSpeed 16.429231532431
scalar SmartConeScenario.node[234].veinsmobility totalDistance 682.14582740342
scalar SmartConeScenario.node[234].veinsmobility totalCO2Emission 107.26547619219
scalar SmartConeScenario.node[236].appl generatedWSMs 1
scalar SmartConeScenario.node[236].appl receivedWSMs 34
scalar SmartConeScenario.node[236].appl generatedBSMs 0
scalar SmartConeScenario.node[236].appl receivedBSMs 0
scalar SmartConeScenario.node[236].appl generatedWSAs 0
scalar SmartConeScenario.node[236].appl receivedWSAs 0
scalar SmartConeScenario.node[236].nic.phy80211p busyTime 0.00018940619567323
scalar SmartConeScenario.node[236].nic.mac1609_4 ReceivedUnicastPackets 0
scalar SmartConeScenario.node[236].nic.mac1609_4 ReceivedBroadcasts 34
scalar SmartConeScenario.node[236].nic.mac1609_4 SentPackets 1
scalar SmartConeScenario.node[236].nic.mac1609_4 SNIRLostPackets 0
scalar SmartConeScenario.node[236].nic.mac1609_4 RXTXLostPackets 0
scalar SmartConeScenario.node[236].nic.mac1609_4 TotalLostPackets 0
scalar SmartConeScenario.node[236].nic.mac1609_4 DroppedPacketsInMac 0
scalar SmartConeScenario.node[236].nic.mac1609_4 TooLittleTime 0
scalar SmartConeScenario.node[236].nic.mac1609_4 TimesIntoBackoff 1
scalar SmartConeScenario.node[236].nic.mac1609_4 SlotsBackoff 3
scalar SmartConeScenario.node[236].nic.mac1609_4 NumInternalContention 0
scalar SmartConeScenario.node[236].nic.mac1609_4 totalBusyTime 0.008121
scalar SmartConeScenario.node[236].veinsmobility startTime 213
scalar SmartConeScenario.node[236].veinsmobility totalTime 41
scalar SmartConeScenario.node[236].veinsmobility stopTime 254.64594495952
scalar SmartConeScenario.node[236].veinsmobility arrived 0
scalar SmartConeScenario.node[236].veinsmobility minSpeed 10.394779655152
scalar SmartConeScenario.node[236].veinsmobility maxSpeed 16.457385423425
scalar SmartConeScenario.node[236].veinsmobility totalDistance 633.25360474969
scalar SmartConeScenario.node[236].veinsmobility totalCO2Emission 108.64757783572
scalar SmartConeScenario.node[238].appl generatedWSMs 1
scalar SmartConeScenario.node[238].appl receivedWSMs 34
scalar SmartConeScenario.node[238].appl generatedBSMs 0
scalar SmartConeScenario.node[238].appl receivedBSMs 0
scalar SmartConeScenario.node[238].appl generatedWSAs 0
scalar SmartConeScenario.node[238].appl receivedWSAs 0
scalar SmartConeScenario.node[238].nic.phy80211p busyTime 0.00019896107932484
scalar SmartConeScenario.node[238].nic.mac1609_4 ReceivedUnicastPackets 0
scalar SmartConeScenario.node[238].nic.mac1609_4 ReceivedBroadcasts 34
scalar SmartConeScenario.node[238].nic.mac1609_4 SentPackets 1
scalar SmartConeScenario.node[238].nic.mac1609_4 SNIRLostPackets 0
scalar SmartConeScenario.node[238].nic.mac1609_4 RXTXLostPackets 0
scalar SmartConeScenario.node[238].nic.mac1609_4 TotalLostPackets 0
scalar SmartConeScenario.node[238].nic.mac1609_4 DroppedPacketsInMac 0
scalar SmartConeScenario.node[238].nic.mac1609_4 TooLittleTime 0
scalar SmartConeScenario.node[238].nic.mac1609_4 TimesIntoBackoff 1
scalar SmartConeScenario.node[238].nic.mac1609_4 SlotsBackoff 3
scalar SmartConeScenario.node[238].nic.mac1609_4 NumInternalContention 0
scalar SmartConeScenario.node[238].nic.mac1609_4 totalBusyTime 0.008121
scalar SmartConeScenario.node[238].veinsmobility startTime 215
scalar SmartConeScenario.node[238].veinsmobility totalTime 39
scalar SmartConeScenario.node[238].veinsmobility stopTime 254.64594495952
scalar SmartConeScenario.node[238].veinsmobility arrived 0
scalar SmartConeScenario.node[238].veinsmobility minSpeed 11.824101343871
scalar SmartConeScenario.node[238].veinsmobility maxSpeed 16.407309398967
scalar SmartConeScenario.node[238].veinsmobility totalDistance 605.85368750576
scalar SmartConeScenario.node[238].veinsmobility totalCO2Emission 100.28353494873
scalar SmartConeScenario.node[24].appl generatedWSMs 1
scalar SmartConeScenario.node[24].appl receivedWSMs 21
scalar SmartConeScenario.node[24].appl generatedBSMs 0
scalar SmartConeScenario.node[24].appl receivedBSMs 0
scalar SmartConeScenario.node[24].appl generatedWSAs 0
scalar SmartConeScenario.node[24].appl receivedWSAs 0
scalar SmartConeScenario.node[24].nic.phy80211p busyTime 2.3933363639623e-05
scalar SmartConeScenario.node[24].nic.mac1609_4 ReceivedUnicastPackets 0
scalar SmartConeScenario.node[24].nic.mac1609_4 ReceivedBroadcasts 21
scalar SmartConeScenario.node[24].nic.mac1609_4 SentPackets 1
scalar SmartConeScenario.node[24].nic.mac1609_4 SNIRLostPackets 3
scalar SmartConeScenario.node[24].nic.mac1609_4 RXTXLostPackets 16
scalar SmartConeScenario.node[24].nic.mac1609_4 TotalLostPackets 19
scalar SmartConeScenario.node[24].nic.mac1609_4 DroppedPacketsInMac 0
scalar SmartConeScenario.node[24].nic.mac1609_4 TooLittleTime 0
scalar SmartConeScenario.node[24].nic.mac1609_4 TimesIntoBackoff 1
scalar SmartConeScenario.node[24].nic.mac1609_4 SlotsBackoff 3
scalar SmartConeScenario.node[24].nic.mac1609_4 NumInternalContention 0
scalar SmartConeScenario.node[24].nic.mac1609_4 totalBusyTime 0.005105146054
scalar SmartConeScenario.node[24].veinsmobility startTime 22
scalar SmartConeScenario.node[24].veinsmobility totalTime 232
scalar SmartConeScenario.node[24].veinsmobility stopTime 254.64594495952
scalar SmartConeScenario.node[24].veinsmobility arrived 0
scalar SmartConeScenario.node[24].veinsmobility minSpeed 13.992020176562
scalar SmartConeScenario.node[24].veinsmobility maxSpeed 30.66638754417
scalar SmartConeScenario.node[24].veinsmobility totalDistance 4484.6713208341
scalar SmartConeScenario.node[24].veinsmobility totalCO2Emission 703.4914060768
scalar SmartConeScenario.node[240].appl generatedWSMs 1
scalar SmartConeScenario.node[240].appl receivedWSMs 34
scalar SmartConeScenario.node[240].appl generatedBSMs 0
scalar SmartConeScenario.node[240].appl receivedBSMs 0
scalar SmartConeScenario.node[240].appl generatedWSAs 0
scalar SmartConeScenario.node[240].appl receivedWSAs 0
scalar SmartConeScenario.node[240].nic.phy80211p busyTime 0.00020953119940225
scalar SmartConeScenario.node[240].nic.mac1609_4 ReceivedUnicastPackets 0
scalar SmartConeScenario.node[240].nic.mac1609_4 ReceivedBroadcasts 34
scalar SmartConeScenario.node[240].nic.mac1609_4 SentPackets 1
scalar SmartConeScenario.node[240].nic.mac1609_4 SNIRLostPackets 0
scalar SmartConeScenario.node[240].nic.mac1609_4 RXTXLostPackets 0
scalar SmartConeScenario.node[240].nic.mac1609_4 TotalLostPackets 0
scalar SmartConeScenario.node[240].nic.mac1609_4 DroppedPacketsInMac 0
scalar SmartConeScenario.node[240].nic.mac1609_4 TooLittleTime 0
scalar SmartConeScenario.node[240].nic.mac1609_4 TimesIntoBackoff 1
scalar SmartConeScenario.node[240].nic.mac1609_4 SlotsBackoff 2
scalar SmartConeScenario.node[240].nic.mac1609_4 NumInternalContention 0
scalar SmartConeScenario.node[240].nic.mac1609_4 totalBusyTime 0.008121
scalar SmartConeScenario.node[240].veinsmobility startTime 217
scalar SmartConeScenario.node[240].veinsmobility totalTime 37
scalar SmartConeScenario.node[240].veinsmobility stopTime 254.64594495952
scalar SmartConeScenario.node[240].veinsmobility arrived 0
scalar SmartConeScenario.node[240].veinsmobility minSpeed 9.7124277153575
scalar SmartConeScenario.node[240].veinsmobility maxSpeed 16.342150605624
scalar SmartConeScenario.node[240].veinsmobility totalDistance 558.96693738971
scalar SmartConeScenario.node[240].veinsmobility totalCO2Emission 100.25232618782
scalar SmartConeScenario.node[242].appl generatedWSMs 1
scalar SmartConeScenario.node[242].appl receivedWSMs 35
scalar SmartConeScenario.node[242].appl generatedBSMs 0
scalar SmartConeScenario.node[242].appl receivedBSMs 0
scalar SmartConeScenario.node[242].appl generatedWSAs 0
scalar SmartConeScenario.node[242].appl receivedWSAs 0
scalar SmartConeScenario.node[242].nic.phy80211p busyTime 0.00022157976848376
scalar SmartConeScenario.node[242].nic.mac1609_4 ReceivedUnicastPackets 0
scalar SmartConeScenario.node[242].nic.mac1609_4 ReceivedBroadcasts 35
scalar SmartConeScenario.node[242].nic.mac1609_4 SentPackets 1
scalar SmartConeScenario.node[242].nic.mac1609_4 SNIRLostPackets 0
scalar SmartConeScenario.node[242].nic.mac1609_4 RXTXLostPackets 0
scalar SmartConeScenario.node[242].nic.mac1609_4 TotalLostPackets 0
scalar SmartConeScenario.node[242].nic.mac1609_4 DroppedPacketsInMac 0
scalar SmartConeScenario.node[242].nic.mac1609_4 TooLittleTime 0
scalar SmartConeScenario.node[242].nic.mac1609_4 TimesIntoBackoff 1
scalar SmartConeScenario.node[242].nic.mac1609_4 SlotsBackoff 0
scalar SmartConeScenario.node[242].nic.mac1609_4 NumInternalContention 0
scalar SmartConeScenario.node[242].nic.mac1609_4 totalBusyTime 0.008353
scalar SmartConeScenario.node[242].veinsmobility startTime 218
scalar SmartConeScenario.node[242].veinsmobility totalTime 36
scalar SmartConeScenario.node[242].veinsmobility stopTime 254.64594495952
scalar SmartConeScenario.node[242].veinsmobility arrived 0
scalar SmartConeScenario.node[242].veinsmobility minSpeed 9.73965806052
scalar SmartConeScenario.node[242].veinsmobility maxSpeed 16.375918254037
scalar SmartConeScenario.node[242].veinsmobility totalDistance 540.20372003234
scalar SmartConeScenario.node[242].veinsmobility totalCO2Emission 97.665024911366
scalar SmartConeScenario.node[244].appl generatedWSMs 1
scalar SmartConeScenario.node[244].appl receivedWSMs 31
scalar SmartConeScenario.node[244].appl generatedBSMs 0
scalar SmartConeScenario.node[244].appl receivedBSMs 0
scalar SmartConeScenario.node[244].appl generatedWSAs 0
scalar SmartConeScenario.node[244].appl receivedWSAs 0
scalar SmartConeScenario.node[244].nic.phy80211p busyTime 0.00020758562101286
scalar SmartConeScenario.node[244].nic.mac1609_4 ReceivedUnicastPackets 0
scalar SmartConeScenario.node[244].nic.mac1609_4 ReceivedBroadcasts 31
scalar SmartConeScenario.node[244].nic.mac1609_4 SentPackets 1
scalar SmartConeScenario.node[244].nic.mac1609_4 SNIRLostPackets 0
scalar SmartConeScenario.node[244].nic.mac1609_4 RXTXLostPackets 0
scalar SmartConeScenario.node[244].nic.mac1609_4 TotalLostPackets 0
scalar SmartConeScenario.node[244].nic.mac1609_4 DroppedPacketsInMac 0
scalar SmartConeScenario.node[244].nic.mac1609_4 TooLittleTime 0
scalar SmartConeScenario.node[244].nic.mac1609_4 TimesIntoBackoff 1
scalar SmartConeScenario.node[244].nic.mac1609_4 SlotsBackoff 2
scalar SmartConeScenario.node[244].nic.mac1609_4 NumInternalContention 0
scalar SmartConeScenario.node[244].nic.mac1609_4 totalBusyTime 0.007425
scalar SmartConeScenario.node[244].veinsmobility startTime 220
scalar SmartConeScenario.node[244].veinsmobility totalTime 34
scalar SmartConeScenario.node[244].veinsmobility stopTime 254.64594495952
scalar SmartConeScenario.node[244].veinsmobility arrived 0
scalar SmartConeScenario.node[244].veinsmobility minSpeed 12.402788412927
scalar SmartConeScenario.node[244].veinsmobility maxSpeed 26.876863738487
scalar SmartConeScenario.node[244].veinsmobility totalDistance 522.74845209597
scalar SmartConeScenario.node[244].veinsmobility totalCO2Emission 47.039344329828
scalar SmartConeScenario.node[246].appl generatedWSMs 1
scalar SmartConeScenario.node[246].appl receivedWSMs 31
scalar SmartConeScenario.node[246].appl generatedBSMs 0
scalar SmartConeScenario.node[246].appl receivedBSMs 0
scalar SmartConeScenario.node[246].appl generatedWSAs 0
scalar SmartConeScenario.node[246].appl receivedWSAs 0
scalar SmartConeScenario.node[246].nic.phy80211p busyTime 0.00022030301187229
scalar SmartConeScenario.node[246].nic.mac1609_4 ReceivedUnicastPackets 0
scalar SmartConeScenario.node[246].nic.mac1609_4 ReceivedBroadcasts 31
scalar SmartConeScenario.node[246].nic.mac1609_4 SentPackets 1
scalar SmartConeScenario.node[246].nic.mac1609_4 SNIRLostPackets 0
scalar SmartConeScenario.node[246].nic.mac1609_4 RXTXLostPackets 0
scalar SmartConeScenario.node[246].nic.mac1609_4 TotalLostPackets 0
scalar SmartConeScenario.node[246].nic.mac1609_4 DroppedPacketsInMac 0
scalar SmartConeScenario.node[246].nic.mac1609_4 TooLittleTime 0
scalar SmartConeScenario.node[246].nic.mac1609_4 TimesIntoBackoff 1
scalar SmartConeScenario.node[246].nic.mac1609_4 SlotsBackoff 3
scalar SmartConeScenario.node[246].nic.mac1609_4 NumInternalContention 0
scalar SmartConeScenario.node[246].nic.mac1609_4 totalBusyTime 0.007425
scalar SmartConeScenario.node[246].veinsmobility startTime 222
scalar SmartConeScenario.node[246].veinsmobility totalTime 32
scalar SmartConeScenario.node[246].veinsmobility stopTime 254.64594495952
scalar SmartConeScenario.node[246].veinsmobility arrived 0
scalar SmartConeScenario.node[246].veinsmobility minSpeed 12.525102318034
scalar SmartConeScenario.node[246].veinsmobility maxSpeed 25.504217235038
scalar SmartConeScenario.node[246].veinsmobility totalDistance 494.41240766393
scalar SmartConeScenario.node[246].veinsmobility totalCO2Emission 43.08869818256
scalar SmartConeScenario.node[248].appl generatedWSMs 1
scalar SmartConeScenario.node[248].appl receivedWSMs 30
scalar SmartConeScenario.node[248].appl generatedBSMs 0
scalar SmartConeScenario.node[248].appl receivedBSMs 0
scalar SmartConeScenario.node[248].appl generatedWSAs 0
scalar SmartConeScenario.node[248].appl receivedWSAs 0
scalar SmartConeScenario.node[248].nic.phy80211p busyTime 0.00023468031445919
scalar SmartConeScenario.node[248].nic.mac1609_4 ReceivedUnicastPackets 0
scalar SmartConeScenario.node[248].nic.mac1609_4 ReceivedBroadcasts 30
scalar SmartConeScenario.node[248].nic.mac1609_4 SentPackets 1
scalar SmartConeScenario.node[248].nic.mac1609_4 SNIRLostPackets 0
scalar SmartConeScenario.node[248].nic.mac1609_4 RXTXLostPackets 0
scalar SmartConeScenario.node[248].nic.mac1609_4 TotalLostPackets 0
scalar SmartConeScenario.node[248].nic.mac1609_4 DroppedPacketsInMac 0
scalar SmartConeScenario.node[248].nic.mac1609_4 TooLittleTime 0
scalar SmartConeScenario.node[248].nic.mac1609_4 TimesIntoBackoff 1
scalar SmartConeScenario.node[248].nic.mac1609_4 SlotsBackoff 2
scalar SmartConeScenario.node[248].nic.mac1609_4 NumInternalContention 0
scalar SmartConeScenario.node[248].nic.mac1609_4 totalBusyTime 0.007193
scalar SmartConeScenario.node[248].veinsmobility startTime 224
scalar SmartConeScenario.node[248].veinsmobility totalTime 30
scalar SmartConeScenario.node[248].veinsmobility stopTime 254.64594495952
scalar SmartConeScenario.node[248].veinsmobility arrived 0
scalar SmartConeScenario.node[248].veinsmobility minSpeed 12.515258270282
scalar SmartConeScenario.node[248].veinsmobility maxSpeed 24.869393232331
scalar SmartConeScenario.node[248].veinsmobility totalDistance 469.10502116313
scalar SmartConeScenario.node[248].veinsmobility totalCO2Emission 38.992912006534
scalar SmartConeScenario.node[250].appl generatedWSMs 1
scalar SmartConeScenario.node[250].appl receivedWSMs 29
scalar SmartConeScenario.node[250].appl generatedBSMs 0
scalar SmartConeScenario.node[250].appl receivedBSMs 0
scalar SmartConeScenario.node[250].appl generatedWSAs 0
scalar SmartConeScenario.node[250].appl receivedWSAs 0
scalar SmartConeScenario.node[250].nic.phy80211p busyTime 0.00024296632594366
scalar SmartConeScenario.node[250].nic.mac1609_4 ReceivedUnicastPackets 0
scalar SmartConeScenario.node[250].nic.mac1609_4 ReceivedBroadcasts 29
scalar SmartConeScenario.node[250].nic.mac1609_4 SentPackets 1
scalar SmartConeScenario.node[250].nic.mac1609_4 SNIRLostPackets 0
scalar SmartConeScenario.node[250].nic.mac1609_4 RXTXLostPackets 0
scalar SmartConeScenario.node[250].nic.mac1609_4 TotalLostPackets 0
scalar SmartConeScenario.node[250].nic.mac1609_4 DroppedPacketsInMac 0
scalar SmartConeScenario.node[250].nic.mac1609_4 TooLittleTime 0
scalar SmartConeScenario.node[250].nic.mac1609_4 TimesIntoBackoff 1
scalar SmartConeScenario.node[250].nic.mac1609_4 SlotsBackoff 1
scalar SmartConeScenario.node[250].nic.mac1609_4 NumInternalContention 0
scalar SmartConeScenario.node[250].nic.mac1609_4 totalBusyTime 0.006961
scalar SmartConeScenario.node[250].veinsmobility startTime 226
scalar SmartConeScenario.node[250].veinsmobility totalTime 28
scalar SmartConeScenario.node[250].veinsmobility stopTime 254.64594495952
scalar SmartConeScenario.node[250].veinsmobility arrived 0
scalar SmartConeScenario.node[250].veinsmobility minSpeed 12.62213297636
scalar SmartConeScenario.node[250].veinsmobility maxSpeed 24.327420594333
scalar SmartConeScenario.node[250].veinsmobility totalDistance 443.7463151851
scalar SmartConeScenario.node[250].veinsmobility totalCO2Emission 34.973548344166
scalar SmartConeScenario.node[252].appl generatedWSMs 1
scalar SmartConeScenario.node[252].appl receivedWSMs 30
scalar SmartConeScenario.node[252].appl generatedBSMs 0
scalar SmartConeScenario.node[252].appl receivedBSMs 0
scalar SmartConeScenario.node[252].appl generatedWSAs 0
scalar SmartConeScenario.node[252].appl receivedWSAs 0
scalar SmartConeScenario.node[252].nic.phy80211p busyTime 0.00026014665118265
scalar SmartConeScenario.node[252].nic.mac1609_4 ReceivedUnicastPackets 0
scalar SmartConeScenario.node[252].nic.mac1609_4 ReceivedBroadcasts 30
scalar SmartConeScenario.node[252].nic.mac1609_4 SentPackets 1
scalar SmartConeScenario.node[252].nic.mac1609_4 SNIRLostPackets 0
scalar SmartConeScenario.node[252].nic.mac1609_4 RXTXLostPackets 0
scalar SmartConeScenario.node[252].nic.mac1609_4 TotalLostPackets 0
scalar SmartConeScenario.node[252].nic.mac1609_4 DroppedPacketsInMac 0
scalar SmartConeScenario.node[252].nic.mac1609_4 TooLittleTime 0
scalar SmartConeScenario.node[252].nic.mac1609_4 TimesIntoBackoff 1
scalar SmartConeScenario.node[252].nic.mac1609_4 SlotsBackoff 0
scalar SmartConeScenario.node[252].nic.mac1609_4 NumInternalContention 0
scalar SmartConeScenario.node[252].nic.mac1609_4 totalBusyTime 0.007193
scalar SmartConeScenario.node[252].veinsmobility startTime 227
scalar SmartConeScenario.node[252].veinsmobility totalTime 27
scalar SmartConeScenario.node[252].veinsmobility stopTime 254.64594495952
scalar SmartConeScenario.node[252].veinsmobility arrived 0
scalar SmartConeScenario.node[252].veinsmobility minSpeed 11.384725373939
scalar SmartConeScenario.node[252].veinsmobility maxSpeed 16.24092362566
scalar SmartConeScenario.node[252].veinsmobility totalDistance 396.24421212533
scalar SmartConeScenario.node[252].veinsmobility totalCO2Emission 72.017778630373
scalar SmartConeScenario.node[254].appl generatedWSMs 1
scalar SmartConeScenario.node[254].appl receivedWSMs 28
scalar SmartConeScenario.node[254].appl generatedBSMs 0
scalar SmartConeScenario.node[254].appl receivedBSMs 0
scalar SmartConeScenario.node[254].appl generatedWSAs 0
scalar SmartConeScenario.node[254].appl receivedWSAs 0
scalar SmartConeScenario.node[254].nic.phy80211p busyTime 0.00026234166885325
scalar SmartConeScenario.node[254].nic.mac1609_4 ReceivedUnicastPackets 0
scalar SmartConeScenario.node[254].nic.mac1609_4 ReceivedBroadcasts 28
scalar SmartConeScenario.node[254].nic.mac1609_4 SentPackets 1
scalar SmartConeScenario.node[254].nic.mac1609_4 SNIRLostPackets 0
scalar SmartConeScenario.node[254].nic.mac1609_4 RXTXLostPackets 0
scalar SmartConeScenario.node[254].nic.mac1609_4 TotalLostPackets 0
scalar SmartConeScenario.node[254].nic.mac1609_4 DroppedPacketsInMac 0
scalar SmartConeScenario.node[254].nic.mac1609_4 TooLittleTime 0
scalar SmartConeScenario.node[254].nic.mac1609_4 TimesIntoBackoff 1
scalar SmartConeScenario.node[254].nic.mac1609_4 SlotsBackoff 2
scalar SmartConeScenario.node[254].nic.mac1609_4 NumInternalContention 0
scalar SmartConeScenario.node[254].nic.mac1609_4 totalBusyTime 0.006729
scalar SmartConeScenario.node[254].veinsmobility startTime 229
scalar SmartConeScenario.node[254].veinsmobility totalTime 25
scalar SmartConeScenario.node[254].veinsmobility stopTime 254.64594495952
scalar SmartConeScenario.node[254].veinsmobility arrived 0
scalar SmartConeScenario.node[254].veinsmobility minSpeed 12.795505421286
scalar SmartConeScenario.node[254].veinsmobility maxSpeed 24.966232467341
scalar SmartConeScenario.node[254].veinsmobility totalDistance 417.99576825389
scalar SmartConeScenario.node[254].veinsmobility totalCO2Emission 28.443344356864
scalar SmartConeScenario.node[256].appl generatedWSMs 1
scalar SmartConeScenario.node[256].appl receivedWSMs 24
scalar SmartConeScenario.node[256].appl generatedBSMs 0
scalar SmartConeScenario.node[256].appl receivedBSMs 0
scalar SmartConeScenario.node[256].appl generatedWSAs 0
scalar SmartConeScenario.node[256].appl receivedWSAs 0
scalar SmartConeScenario.node[256].nic.phy80211p busyTime 0.00024528518568102
scalar SmartConeScenario.node[256].nic.mac1609_4 ReceivedUnicastPackets 0
scalar SmartConeScenario.node[256].nic.mac1609_4 ReceivedBroadcasts 24
scalar SmartConeScenario.node[256].nic.mac1609_4 SentPackets 1
scalar SmartConeScenario.node[256].nic.mac1609_4 SNIRLostPackets 0
scalar SmartConeScenario.node[256].nic.mac1609_4 RXTXLostPackets 0
scalar SmartConeScenario.node[256].nic.mac1609_4 TotalLostPackets 0
scalar SmartConeScenario.node[256].nic.mac1609_4 DroppedPacketsInMac 0
scalar SmartConeScenario.node[256].nic.mac1609_4 TooLittleTime 0
scalar SmartConeScenario.node[256].nic.mac1609_4 TimesIntoBackoff 1
scalar SmartConeScenario.node[256].nic.mac1609_4 SlotsBackoff 0
scalar SmartConeScenario.node[256].nic.mac1609_4 NumInternalContention 0
scalar SmartConeScenario.node[256].nic.mac1609_4 totalBusyTime 0.005801
scalar SmartConeScenario.node[256].veinsmobility startTime 231
scalar SmartConeScenario.node[256].veinsmobility totalTime 23
scalar SmartConeScenario.node[256].veinsmobility stopTime 254.64594495952
scalar SmartConeScenario.node[256].veinsmobility arrived 0
scalar SmartConeScenario.node[256].veinsmobility minSpeed 13.180135777725
scalar SmartConeScenario.node[256].veinsmobility maxSpeed 20.967129916224
scalar SmartConeScenario.node[256].veinsmobility totalDistance 372.85219135626
scalar SmartConeScenario.node[256].veinsmobility totalCO2Emission 26.00087488415
scalar SmartConeScenario.node[258].appl generatedWSMs 1
scalar SmartConeScenario.node[258].appl receivedWSMs 22
scalar SmartConeScenario.node[258].appl generatedBSMs 0
scalar SmartConeScenario.node[258].appl receivedBSMs 0
scalar SmartConeScenario.node[258].appl generatedWSAs 0
scalar SmartConeScenario.node[258].appl receivedWSAs 0
scalar SmartConeScenario.node[258].nic.phy80211p busyTime 0.00024651268447637
scalar SmartConeScenario.node[258].nic.mac1609_4 ReceivedUnicastPackets 0
scalar SmartConeScenario.node[258].nic.mac1609_4 ReceivedBroadcasts 22
scalar SmartConeScenario.node[258].nic.mac1609_4 SentPackets 1
scalar SmartConeScenario.node[258].nic.mac1609_4 SNIRLostPackets 0
scalar SmartConeScenario.node[258].nic.mac1609_4 RXTXLostPackets 0
scalar SmartConeScenario.node[258].nic.mac1609_4 TotalLostPackets 0
scalar SmartConeScenario.node[258].nic.mac1609_4 DroppedPacketsInMac 0
scalar SmartConeScenario.node[258].nic.mac1609_4 TooLittleTime 0
scalar SmartConeScenario.node[258].nic.mac1609_4 TimesIntoBackoff 1
scalar SmartConeScenario.node[258].nic.mac1609_4 SlotsBackoff 0
scalar SmartConeScenario.node[258].nic.mac1609_4 NumInternalContention 0
scalar SmartConeScenario.node[258].nic.mac1609_4 totalBusyTime 0.005337
scalar SmartConeScenario.node[258].veinsmobility startTime 233
scalar SmartConeScenario.node[258].veinsmobility totalTime 21
scalar SmartConeScenario.node[258].veinsmobility stopTime 254.64594495952
scalar SmartConeScenario.node[258].veinsmobility arrived 0
scalar SmartConeScenario.node[258].veinsmobility minSpeed 13.343790415518
scalar SmartConeScenario.node[258].veinsmobility maxSpeed 21.363334800769
scalar SmartConeScenario.node[258].veinsmobility totalDistance 346.52849709301
scalar SmartConeScenario.node[258].veinsmobility totalCO2Emission 22.27221071458
scalar SmartConeScenario.node[26].appl generatedWSMs 1
scalar SmartConeScenario.node[26].appl receivedWSMs 24
scalar SmartConeScenario.node[26].appl generatedBSMs 0
scalar SmartConeScenario.node[26].appl receivedBSMs 0
scalar SmartConeScenario.node[26].appl generatedWSAs 0
scalar SmartConeScenario.node[26].appl receivedWSAs 0
scalar SmartConeScenario.node[26].nic.phy80211p busyTime 2.4140896996811e-05
scalar SmartConeScenario.node[26].nic.mac1609_4 ReceivedUnicastPackets 0
scalar SmartConeScenario.node[26].nic.mac1609_4 ReceivedBroadcasts 24
scalar SmartConeScenario.node[26].nic.mac1609_4 SentPackets 1
scalar SmartConeScenario.node[26].nic.mac1609_4 SNIRLostPackets 0
scalar SmartConeScenario.node[26].nic.mac1609_4 RXTXLostPackets 0
scalar SmartConeScenario.node[26].nic.mac1609_4 TotalLostPackets 0
scalar SmartConeScenario.node[26].nic.mac1609_4 DroppedPacketsInMac 0
scalar SmartConeScenario.node[26].nic.mac1609_4 TooLittleTime 0
scalar SmartConeScenario.node[26].nic.mac1609_4 TimesIntoBackoff 1
scalar SmartConeScenario.node[26].nic.mac1609_4 SlotsBackoff 3
scalar SmartConeScenario.node[26].nic.mac1609_4 NumInternalContention 0
scalar SmartConeScenario.node[26].nic.mac1609_4 totalBusyTime 0.005801
scalar SmartConeScenario.node[26].veinsmobility startTime 24
scalar SmartConeScenario.node[26].veinsmobility totalTime 230
scalar SmartConeScenario.node[26].veinsmobility stopTime 254.64594495952
scalar SmartConeScenario.node[26].veinsmobility arrived 0
scalar SmartConeScenario.node[26].veinsmobility minSpeed 23.333783606518
scalar SmartConeScenario.node[26].veinsmobility maxSpeed 24.730980072319
scalar SmartConeScenario.node[26].veinsmobility totalDistance 5398.7583145429
scalar SmartConeScenario.node[26].veinsmobility totalCO2Emission 779.93069938289
scalar SmartConeScenario.node[260].appl generatedWSMs 1
scalar SmartConeScenario.node[260].appl receivedWSMs 20
scalar SmartConeScenario.node[260].appl generatedBSMs 0
scalar SmartConeScenario.node[260].appl receivedBSMs 0
scalar SmartConeScenario.node[260].appl generatedWSAs 0
scalar SmartConeScenario.node[260].appl receivedWSAs 0
scalar SmartConeScenario.node[260].nic.phy80211p busyTime 0.00024799010737522
scalar SmartConeScenario.node[260].nic.mac1609_4 ReceivedUnicastPackets 0
scalar SmartConeScenario.node[260].nic.mac1609_4 ReceivedBroadcasts 20
scalar SmartConeScenario.node[260].nic.mac1609_4 SentPackets 1
scalar SmartConeScenario.node[260].nic.mac1609_4 SNIRLostPackets 0
scalar SmartConeScenario.node[260].nic.mac1609_4 RXTXLostPackets 0
scalar SmartConeScenario.node[260].nic.mac1609_4 TotalLostPackets 0
scalar SmartConeScenario.node[260].nic.mac1609_4 DroppedPacketsInMac 0
scalar SmartConeScenario.node[260].nic.mac1609_4 TooLittleTime 0
scalar SmartConeScenario.node[260].nic.mac1609_4 TimesIntoBackoff 1
scalar SmartConeScenario.node[260].nic.mac1609_4 SlotsBackoff 3
scalar SmartConeScenario.node[260].nic.mac1609_4 NumInternalContention 0
scalar SmartConeScenario.node[260].nic.mac1609_4 totalBusyTime 0.004873
scalar SmartConeScenario.node[260].veinsmobility startTime 235
scalar SmartConeScenario.node[260].veinsmobility totalTime 19
scalar SmartConeScenario.node[260].veinsmobility stopTime 254.64594495952
scalar SmartConeScenario.node[260].veinsmobility arrived 0
scalar SmartConeScenario.node[260].veinsmobility minSpeed 16.169664532995
scalar SmartConeScenario.node[260].veinsmobility maxSpeed 20.707915073779
scalar SmartConeScenario.node[260].veinsmobility totalDistance 329.18560363142
scalar SmartConeScenario.node[260].veinsmobility totalCO2Emission 29.869875713518
scalar SmartConeScenario.node[262].appl generatedWSMs 1
scalar SmartConeScenario.node[262].appl receivedWSMs 18
scalar SmartConeScenario.node[262].appl generatedBSMs 0
scalar SmartConeScenario.node[262].appl receivedBSMs 0
scalar SmartConeScenario.node[262].appl generatedWSAs 0
scalar SmartConeScenario.node[262].appl receivedWSAs 0
scalar SmartConeScenario.node[262].nic.phy80211p busyTime 0.00023640528863347
scalar SmartConeScenario.node[262].nic.mac1609_4 ReceivedUnicastPackets 0
scalar SmartConeScenario.node[262].nic.mac1609_4 ReceivedBroadcasts 18
scalar SmartConeScenario.node[262].nic.mac1609_4 SentPackets 1
scalar SmartConeScenario.node[262].nic.mac1609_4 SNIRLostPackets 0
scalar SmartConeScenario.node[262].nic.mac1609_4 RXTXLostPackets 0
scalar SmartConeScenario.node[262].nic.mac1609_4 TotalLostPackets 0
scalar SmartConeScenario.node[262].nic.mac1609_4 DroppedPacketsInMac 0
scalar SmartConeScenario.node[262].nic.mac1609_4 TooLittleTime 0
scalar SmartConeScenario.node[262].nic.mac1609_4 TimesIntoBackoff 1
scalar SmartConeScenario.node[262].nic.mac1609_4 SlotsBackoff 3
scalar SmartConeScenario.node[262].nic.mac1609_4 NumInternalContention 0
scalar SmartConeScenario.node[262].nic.mac1609_4 totalBusyTime 0.004409
scalar SmartConeScenario.node[262].veinsmobility startTime 236
scalar SmartConeScenario.node[262].veinsmobility totalTime 18
scalar SmartConeScenario.node[262].veinsmobility stopTime 254.64594495952
scalar SmartConeScenario.node[262].veinsmobility arrived 0
scalar SmartConeScenario.node[262].veinsmobility minSpeed 16.261308722872
scalar SmartConeScenario.node[262].veinsmobility maxSpeed 21.637223410402
scalar SmartConeScenario.node[262].veinsmobility totalDistance 322.44952679656
scalar SmartConeScenario.node[262].veinsmobility totalCO2Emission 26.041126388023
scalar SmartConeScenario.node[264].appl generatedWSMs 1
scalar SmartConeScenario.node[264].appl receivedWSMs 17
scalar SmartConeScenario.node[264].appl generatedBSMs 0
scalar SmartConeScenario.node[264].appl receivedBSMs 0
scalar SmartConeScenario.node[264].appl generatedWSAs 0
scalar SmartConeScenario.node[264].appl receivedWSAs 0
scalar SmartConeScenario.node[264].nic.phy80211p busyTime 0.00025087190965453
scalar SmartConeScenario.node[264].nic.mac1609_4 ReceivedUnicastPackets 0
scalar SmartConeScenario.node[264].nic.mac1609_4 ReceivedBroadcasts 17
scalar SmartConeScenario.node[264].nic.mac1609_4 SentPackets 1
scalar SmartConeScenario.node[264].nic.mac1609_4 SNIRLostPackets 0
scalar SmartConeScenario.node[264].nic.mac1609_4 RXTXLostPackets 0
scalar SmartConeScenario.node[264].nic.mac1609_4 TotalLostPackets 0
scalar SmartConeScenario.node[264].nic.mac1609_4 DroppedPacketsInMac 0
scalar SmartConeScenario.node[264].nic.mac1609_4 TooLittleTime 0
scalar SmartConeScenario.node[264].nic.mac1609_4 TimesIntoBackoff 1
scalar SmartConeScenario.node[264].nic.mac1609_4 SlotsBackoff 0
scalar SmartConeScenario.node[264].nic.mac1609_4 NumInternalContention 0
scalar SmartConeScenario.node[264].nic.mac1609_4 totalBusyTime 0.004177
scalar SmartConeScenario.node[264].veinsmobility startTime 238
scalar SmartConeScenario.node[264].veinsmobility totalTime 16
scalar SmartConeScenario.node[264].veinsmobility stopTime 254.64594495952
scalar SmartConeScenario.node[264].veinsmobility arrived 0
scalar SmartConeScenario.node[264].veinsmobility minSpeed 16.548514590571
scalar SmartConeScenario.node[264].veinsmobility maxSpeed 21.67328256079
scalar SmartConeScenario.node[264].veinsmobility totalDistance 292.98172202353
scalar SmartConeScenario.node[264].veinsmobility totalCO2Emission 21.043912570173
scalar SmartConeScenario.node[266].appl generatedWSMs 1
scalar SmartConeScenario.node[266].appl receivedWSMs 16
scalar SmartConeScenario.node[266].appl generatedBSMs 0
scalar SmartConeScenario.node[266].appl receivedBSMs 0
scalar SmartConeScenario.node[266].appl generatedWSAs 0
scalar SmartConeScenario.node[266].appl receivedWSAs 0
scalar SmartConeScenario.node[266].nic.phy80211p busyTime 0.00026928955495188
scalar SmartConeScenario.node[266].nic.mac1609_4 ReceivedUnicastPackets 0
scalar SmartConeScenario.node[266].nic.mac1609_4 ReceivedBroadcasts 16
scalar SmartConeScenario.node[266].nic.mac1609_4 SentPackets 1
scalar SmartConeScenario.node[266].nic.mac1609_4 SNIRLostPackets 0
scalar SmartConeScenario.node[266].nic.mac1609_4 RXTXLostPackets 0
scalar SmartConeScenario.node[266].nic.mac1609_4 TotalLostPackets 0
scalar SmartConeScenario.node[266].nic.mac1609_4 DroppedPacketsInMac 0
scalar SmartConeScenario.node[266].nic.mac1609_4 TooLittleTime 0
scalar SmartConeScenario.node[266].nic.mac1609_4 TimesIntoBackoff 1
scalar SmartConeScenario.node[266].nic.mac1609_4 SlotsBackoff 3
scalar SmartConeScenario.node[266].nic.mac1609_4 NumInternalContention 0
scalar SmartConeScenario.node[266].nic.mac1609_4 totalBusyTime 0.003945
scalar SmartConeScenario.node[266].veinsmobility startTime 240
scalar SmartConeScenario.node[266].veinsmobility totalTime 14
scalar SmartConeScenario.node[266].veinsmobility stopTime 254.64594495952
scalar SmartConeScenario.node[266].veinsmobility arrived 0
scalar SmartConeScenario.node[266].veinsmobility minSpeed 16.658574090962
scalar SmartConeScenario.node[266].veinsmobility maxSpeed 18.147708534993
scalar SmartConeScenario.node[266].veinsmobility totalDistance 241.63571651751
scalar SmartConeScenario.node[266].veinsmobility totalCO2Emission 25.104950856118
scalar SmartConeScenario.node[268].appl generatedWSMs 1
scalar SmartConeScenario.node[268].appl receivedWSMs 13
scalar SmartConeScenario.node[268].appl generatedBSMs 0
scalar SmartConeScenario.node[268].appl receivedBSMs 0
scalar SmartConeScenario.node[268].appl generatedWSAs 0
scalar SmartConeScenario.node[268].appl receivedWSAs 0
scalar SmartConeScenario.node[268].nic.phy80211p busyTime 0.00025684122542016
scalar SmartConeScenario.node[268].nic.mac1609_4 ReceivedUnicastPackets 0
scalar SmartConeScenario.node[268].nic.mac1609_4 ReceivedBroadcasts 13
scalar SmartConeScenario.node[268].nic.mac1609_4 SentPackets 1
scalar SmartConeScenario.node[268].nic.mac1609_4 SNIRLostPackets 0
scalar SmartConeScenario.node[268].nic.mac1609_4 RXTXLostPackets 0
scalar SmartConeScenario.node[268].nic.mac1609_4 TotalLostPackets 0
scalar SmartConeScenario.node[268].nic.mac1609_4 DroppedPacketsInMac 0
scalar SmartConeScenario.node[268].nic.mac1609_4 TooLittleTime 0
scalar SmartConeScenario.node[268].nic.mac1609_4 TimesIntoBackoff 1
scalar SmartConeScenario.node[268].nic.mac1609_4 SlotsBackoff 2
scalar SmartConeScenario.node[268].nic.mac1609_4 NumInternalContention 0
scalar SmartConeScenario.node[268].nic.mac1609_4 totalBusyTime 0.003249
scalar SmartConeScenario.node[268].veinsmobility startTime 242
scalar SmartConeScenario.node[268].veinsmobility totalTime 12
scalar SmartConeScenario.node[268].veinsmobility stopTime 254.64594495952
scalar SmartConeScenario.node[268].veinsmobility arrived 0
scalar SmartConeScenario.node[268].veinsmobility minSpeed 16.793639473132
scalar SmartConeScenario.node[268].veinsmobility maxSpeed 18.783381764306
scalar SmartConeScenario.node[268].veinsmobility totalDistance 212.05472254446
scalar SmartConeScenario.node[268].veinsmobility totalCO2Emission 18.524991342279
scalar SmartConeScenario.node[270].appl generatedWSMs 1
scalar SmartConeScenario.node[270].appl receivedWSMs 10
scalar SmartConeScenario.node[270].appl generatedBSMs 0
scalar SmartConeScenario.node[270].appl receivedBSMs 0
scalar SmartConeScenario.node[270].appl generatedWSAs 0
scalar SmartConeScenario.node[270].appl receivedWSAs 0
scalar SmartConeScenario.node[270].nic.phy80211p busyTime 0.00023971568608543
scalar SmartConeScenario.node[270].nic.mac1609_4 ReceivedUnicastPackets 0
scalar SmartConeScenario.node[270].nic.mac1609_4 ReceivedBroadcasts 10
scalar SmartConeScenario.node[270].nic.mac1609_4 SentPackets 1
scalar SmartConeScenario.node[270].nic.mac1609_4 SNIRLostPackets 0
scalar SmartConeScenario.node[270].nic.mac1609_4 RXTXLostPackets 0
scalar SmartConeScenario.node[270].nic.mac1609_4 TotalLostPackets 0
scalar SmartConeScenario.node[270].nic.mac1609_4 DroppedPacketsInMac 0
scalar SmartConeScenario.node[270].nic.mac1609_4 TooLittleTime 0
scalar SmartConeScenario.node[270].nic.mac1609_4 TimesIntoBackoff 1
scalar SmartConeScenario.node[270].nic.mac1609_4 SlotsBackoff 0
scalar SmartConeScenario.node[270].nic.mac1609_4 NumInternalContention 0
scalar SmartConeScenario.node[270].nic.mac1609_4 totalBusyTime 0.002553
scalar SmartConeScenario.node[270].veinsmobility startTime 244
scalar SmartConeScenario.node[270].veinsmobility totalTime 10
scalar SmartConeScenario.node[270].veinsmobility stopTime 254.64594495952
scalar SmartConeScenario.node[270].veinsmobility arrived 0
scalar SmartConeScenario.node[270].veinsmobility minSpeed 16.551261288094
scalar SmartConeScenario.node[270].veinsmobility maxSpeed 26.491401411515
scalar SmartConeScenario.node[270].veinsmobility totalDistance 214.54483015606
scalar SmartConeScenario.node[270].veinsmobility totalCO2Emission 8.757
scalar SmartConeScenario.node[272].appl generatedWSMs 1
scalar SmartConeScenario.node[272].appl receivedWSMs 8
scalar SmartConeScenario.node[272].appl generatedBSMs 0
scalar SmartConeScenario.node[272].appl receivedBSMs 0
scalar SmartConeScenario.node[272].appl generatedWSAs 0
scalar SmartConeScenario.node[272].appl receivedWSAs 0
scalar SmartConeScenario.node[272].nic.phy80211p busyTime 0.00021646401765318
scalar SmartConeScenario.node[272].nic.mac1609_4 ReceivedUnicastPackets 0
scalar SmartConeScenario.node[272].nic.mac1609_4 ReceivedBroadcasts 8
scalar SmartConeScenario.node[272].nic.mac1609_4 SentPackets 1
scalar SmartConeScenario.node[272].nic.mac1609_4 SNIRLostPackets 0
scalar SmartConeScenario.node[272].nic.mac1609_4 RXTXLostPackets 0
scalar SmartConeScenario.node[272].nic.mac1609_4 TotalLostPackets 0
scalar SmartConeScenario.node[272].nic.mac1609_4 DroppedPacketsInMac 0
scalar SmartConeScenario.node[272].nic.mac1609_4 TooLittleTime 0
scalar SmartConeScenario.node[272].nic.mac1609_4 TimesIntoBackoff 1
scalar SmartConeScenario.node[272].nic.mac1609_4 SlotsBackoff 2
scalar SmartConeScenario.node[272].nic.mac1609_4 NumInternalContention 0
scalar SmartConeScenario.node[272].nic.mac1609_4 totalBusyTime 0.002089
scalar SmartConeScenario.node[272].veinsmobility startTime 245
scalar SmartConeScenario.node[272].veinsmobility totalTime 9
scalar SmartConeScenario.node[272].veinsmobility stopTime 254.64594495952
scalar SmartConeScenario.node[272].veinsmobility arrived 0
scalar SmartConeScenario.node[272].veinsmobility minSpeed 18.162977249526
scalar SmartConeScenario.node[272].veinsmobility maxSpeed 27.319573062591
scalar SmartConeScenario.node[272].veinsmobility totalDistance 205.97114171228
scalar SmartConeScenario.node[272].veinsmobility totalCO2Emission 7.784
scalar SmartConeScenario.node[274].appl generatedWSMs 1
scalar SmartConeScenario.node[274].appl receivedWSMs 6
scalar SmartConeScenario.node[274].appl generatedBSMs 0
scalar SmartConeScenario.node[274].appl receivedBSMs 0
scalar SmartConeScenario.node[274].appl generatedWSAs 0
scalar SmartConeScenario.node[274].appl receivedWSAs 0
scalar SmartConeScenario.node[274].nic.phy80211p busyTime 0.00021240016879498
scalar SmartConeScenario.node[274].nic.mac1609_4 ReceivedUnicastPackets 0
scalar SmartConeScenario.node[274].nic.mac1609_4 ReceivedBroadcasts 6
[...]
scalar SmartConeScenario.node[19].nic.mac1609_4 SlotsBackoff 0
scalar SmartConeScenario.node[19].nic.mac1609_4 NumInternalContention 0
scalar SmartConeScenario.node[19].nic.mac1609_4 totalBusyTime 0.005569
scalar SmartConeScenario.node[19].veinsmobility startTime 17
scalar SmartConeScenario.node[19].veinsmobility totalTime 237
scalar SmartConeScenario.node[19].veinsmobility stopTime 254.64594495952
scalar SmartConeScenario.node[19].veinsmobility arrived 0
scalar SmartConeScenario.node[19].veinsmobility minSpeed 23.390742127732
scalar SmartConeScenario.node[19].veinsmobility maxSpeed 28.168905210268
scalar SmartConeScenario.node[19].veinsmobility totalDistance 5632.1341624979
scalar SmartConeScenario.node[19].veinsmobility totalCO2Emission 797.29668736066
scalar SmartConeScenario.node[181].appl generatedWSMs 1
scalar SmartConeScenario.node[181].appl receivedWSMs 25
scalar SmartConeScenario.node[181].appl generatedBSMs 0
scalar SmartConeScenario.node[181].appl receivedBSMs 0
scalar SmartConeScenario.node[181].appl generatedWSAs 0
scalar SmartConeScenario.node[181].appl receivedWSAs 0
scalar SmartConeScenario.node[181].nic.phy80211p busyTime 6.3287033622291e-05
scalar SmartConeScenario.node[181].nic.mac1609_4 ReceivedUnicastPackets 0
scalar SmartConeScenario.node[181].nic.mac1609_4 ReceivedBroadcasts 25
scalar SmartConeScenario.node[181].nic.mac1609_4 SentPackets 1
scalar SmartConeScenario.node[181].nic.mac1609_4 SNIRLostPackets 0
scalar SmartConeScenario.node[181].nic.mac1609_4 RXTXLostPackets 0
scalar SmartConeScenario.node[181].nic.mac1609_4 TotalLostPackets 0
scalar SmartConeScenario.node[181].nic.mac1609_4 DroppedPacketsInMac 0
scalar SmartConeScenario.node[181].nic.mac1609_4 TooLittleTime 0
scalar SmartConeScenario.node[181].nic.mac1609_4 TimesIntoBackoff 1
scalar SmartConeScenario.node[181].nic.mac1609_4 SlotsBackoff 3
scalar SmartConeScenario.node[181].nic.mac1609_4 NumInternalContention 0
scalar SmartConeScenario.node[181].nic.mac1609_4 totalBusyTime 0.006033
scalar SmartConeScenario.node[181].veinsmobility startTime 163
scalar SmartConeScenario.node[181].veinsmobility totalTime 91
scalar SmartConeScenario.node[181].veinsmobility stopTime 254.64594495952
scalar SmartConeScenario.node[181].veinsmobility arrived 0
scalar SmartConeScenario.node[181].veinsmobility minSpeed 16.825601801291
scalar SmartConeScenario.node[181].veinsmobility maxSpeed 20.475990206724
scalar SmartConeScenario.node[181].veinsmobility totalDistance 1785.4369903755
scalar SmartConeScenario.node[181].veinsmobility totalCO2Emission 237.12964193508
scalar SmartConeScenario.node[183].appl generatedWSMs 1
scalar SmartConeScenario.node[183].appl receivedWSMs 20
scalar SmartConeScenario.node[183].appl generatedBSMs 0
scalar SmartConeScenario.node[183].appl receivedBSMs 0
scalar SmartConeScenario.node[183].appl generatedWSAs 0
scalar SmartConeScenario.node[183].appl receivedWSAs 0
scalar SmartConeScenario.node[183].nic.phy80211p busyTime 5.1188169554324e-05
scalar SmartConeScenario.node[183].nic.mac1609_4 ReceivedUnicastPackets 0
scalar SmartConeScenario.node[183].nic.mac1609_4 ReceivedBroadcasts 20
scalar SmartConeScenario.node[183].nic.mac1609_4 SentPackets 1
scalar SmartConeScenario.node[183].nic.mac1609_4 SNIRLostPackets 0
scalar SmartConeScenario.node[183].nic.mac1609_4 RXTXLostPackets 0
scalar SmartConeScenario.node[183].nic.mac1609_4 TotalLostPackets 0
scalar SmartConeScenario.node[183].nic.mac1609_4 DroppedPacketsInMac 0
scalar SmartConeScenario.node[183].nic.mac1609_4 TooLittleTime 0
scalar SmartConeScenario.node[183].nic.mac1609_4 TimesIntoBackoff 1
scalar SmartConeScenario.node[183].nic.mac1609_4 SlotsBackoff 1
scalar SmartConeScenario.node[183].nic.mac1609_4 NumInternalContention 0
scalar SmartConeScenario.node[183].nic.mac1609_4 totalBusyTime 0.004873
scalar SmartConeScenario.node[183].veinsmobility startTime 164
scalar SmartConeScenario.node[183].veinsmobility totalTime 90
scalar SmartConeScenario.node[183].veinsmobility stopTime 254.64594495952
scalar SmartConeScenario.node[183].veinsmobility arrived 0
scalar SmartConeScenario.node[183].veinsmobility minSpeed 14.128058687795
scalar SmartConeScenario.node[183].veinsmobility maxSpeed 25.838415209624
scalar SmartConeScenario.node[183].veinsmobility totalDistance 1666.6298265423
scalar SmartConeScenario.node[183].veinsmobility totalCO2Emission 180.04848225475
scalar SmartConeScenario.node[185].appl generatedWSMs 1
scalar SmartConeScenario.node[185].appl receivedWSMs 25
scalar SmartConeScenario.node[185].appl generatedBSMs 0
scalar SmartConeScenario.node[185].appl receivedBSMs 0
scalar SmartConeScenario.node[185].appl generatedWSAs 0
scalar SmartConeScenario.node[185].appl receivedWSAs 0
scalar SmartConeScenario.node[185].nic.phy80211p busyTime 6.6175337634599e-05
scalar SmartConeScenario.node[185].nic.mac1609_4 ReceivedUnicastPackets 0
scalar SmartConeScenario.node[185].nic.mac1609_4 ReceivedBroadcasts 25
scalar SmartConeScenario.node[185].nic.mac1609_4 SentPackets 1
scalar SmartConeScenario.node[185].nic.mac1609_4 SNIRLostPackets 0
scalar SmartConeScenario.node[185].nic.mac1609_4 RXTXLostPackets 0
scalar SmartConeScenario.node[185].nic.mac1609_4 TotalLostPackets 0
scalar SmartConeScenario.node[185].nic.mac1609_4 DroppedPacketsInMac 0
scalar SmartConeScenario.node[185].nic.mac1609_4 TooLittleTime 0
scalar SmartConeScenario.node[185].nic.mac1609_4 TimesIntoBackoff 1
scalar SmartConeScenario.node[185].nic.mac1609_4 SlotsBackoff 0
scalar SmartConeScenario.node[185].nic.mac1609_4 NumInternalContention 0
scalar SmartConeScenario.node[185].nic.mac1609_4 totalBusyTime 0.006033
scalar SmartConeScenario.node[185].veinsmobility startTime 167
scalar SmartConeScenario.node[185].veinsmobility totalTime 87
scalar SmartConeScenario.node[185].veinsmobility stopTime 254.64594495952
scalar SmartConeScenario.node[185].veinsmobility arrived 0
scalar SmartConeScenario.node[185].veinsmobility minSpeed 16.701659040657
scalar SmartConeScenario.node[185].veinsmobility maxSpeed 24.235095587222
scalar SmartConeScenario.node[185].veinsmobility totalDistance 1704.5215816236
scalar SmartConeScenario.node[185].veinsmobility totalCO2Emission 248.29023012233
scalar SmartConeScenario.node[187].appl generatedWSMs 1
scalar SmartConeScenario.node[187].appl receivedWSMs 25
scalar SmartConeScenario.node[187].appl generatedBSMs 0
scalar SmartConeScenario.node[187].appl receivedBSMs 0
scalar SmartConeScenario.node[187].appl generatedWSAs 0
scalar SmartConeScenario.node[187].appl receivedWSAs 0
scalar SmartConeScenario.node[187].nic.phy80211p busyTime 6.6939081831347e-05
scalar SmartConeScenario.node[187].nic.mac1609_4 ReceivedUnicastPackets 0
scalar SmartConeScenario.node[187].nic.mac1609_4 ReceivedBroadcasts 25
scalar SmartConeScenario.node[187].nic.mac1609_4 SentPackets 1
scalar SmartConeScenario.node[187].nic.mac1609_4 SNIRLostPackets 0
scalar SmartConeScenario.node[187].nic.mac1609_4 RXTXLostPackets 0
scalar SmartConeScenario.node[187].nic.mac1609_4 TotalLostPackets 0
scalar SmartConeScenario.node[187].nic.mac1609_4 DroppedPacketsInMac 0
scalar SmartConeScenario.node[187].nic.mac1609_4 TooLittleTime 0
scalar SmartConeScenario.node[187].nic.mac1609_4 TimesIntoBackoff 1
scalar SmartConeScenario.node[187].nic.mac1609_4 SlotsBackoff 1
scalar SmartConeScenario.node[187].nic.mac1609_4 NumInternalContention 0
scalar SmartConeScenario.node[187].nic.mac1609_4 totalBusyTime 0.006033
scalar SmartConeScenario.node[187].veinsmobility startTime 168
scalar SmartConeScenario.node[187].veinsmobility totalTime 86
scalar SmartConeScenario.node[187].veinsmobility stopTime 254.64594495952
scalar SmartConeScenario.node[187].veinsmobility arrived 0
scalar SmartConeScenario.node[187].veinsmobility minSpeed 16.427806381047
scalar SmartConeScenario.node[187].veinsmobility maxSpeed 25.223327278511
scalar SmartConeScenario.node[187].veinsmobility totalDistance 1623.851102184
scalar SmartConeScenario.node[187].veinsmobility totalCO2Emission 286.63973729795
scalar SmartConeScenario.node[189].appl generatedWSMs 1
scalar SmartConeScenario.node[189].appl receivedWSMs 18
scalar SmartConeScenario.node[189].appl generatedBSMs 0
scalar SmartConeScenario.node[189].appl receivedBSMs 0
scalar SmartConeScenario.node[189].appl generatedWSAs 0
scalar SmartConeScenario.node[189].appl receivedWSAs 0
scalar SmartConeScenario.node[189].nic.phy80211p busyTime 4.9334909096908e-05
scalar SmartConeScenario.node[189].nic.mac1609_4 ReceivedUnicastPackets 0
scalar SmartConeScenario.node[189].nic.mac1609_4 ReceivedBroadcasts 18
scalar SmartConeScenario.node[189].nic.mac1609_4 SentPackets 1
scalar SmartConeScenario.node[189].nic.mac1609_4 SNIRLostPackets 0
scalar SmartConeScenario.node[189].nic.mac1609_4 RXTXLostPackets 0
scalar SmartConeScenario.node[189].nic.mac1609_4 TotalLostPackets 0
scalar SmartConeScenario.node[189].nic.mac1609_4 DroppedPacketsInMac 0
scalar SmartConeScenario.node[189].nic.mac1609_4 TooLittleTime 0
scalar SmartConeScenario.node[189].nic.mac1609_4 TimesIntoBackoff 1
scalar SmartConeScenario.node[189].nic.mac1609_4 SlotsBackoff 0
scalar SmartConeScenario.node[189].nic.mac1609_4 NumInternalContention 0
scalar SmartConeScenario.node[189].nic.mac1609_4 totalBusyTime 0.004409
scalar SmartConeScenario.node[189].veinsmobility startTime 170
scalar SmartConeScenario.node[189].veinsmobility totalTime 84
scalar SmartConeScenario.node[189].veinsmobility stopTime 254.64594495952
scalar SmartConeScenario.node[189].veinsmobility arrived 0
scalar SmartConeScenario.node[189].veinsmobility minSpeed 14.160859013604
scalar SmartConeScenario.node[189].veinsmobility maxSpeed 26.185328244024
scalar SmartConeScenario.node[189].veinsmobility totalDistance 1628.9829140861
scalar SmartConeScenario.node[189].veinsmobility totalCO2Emission 187.48205298588
scalar SmartConeScenario.node[191].appl generatedWSMs 1
scalar SmartConeScenario.node[191].appl receivedWSMs 25
scalar SmartConeScenario.node[191].appl generatedBSMs 0
scalar SmartConeScenario.node[191].appl receivedBSMs 0
scalar SmartConeScenario.node[191].appl generatedWSAs 0
scalar SmartConeScenario.node[191].appl receivedWSAs 0
scalar SmartConeScenario.node[191].nic.phy80211p busyTime 7.0178881768979e-05
scalar SmartConeScenario.node[191].nic.mac1609_4 ReceivedUnicastPackets 0
scalar SmartConeScenario.node[191].nic.mac1609_4 ReceivedBroadcasts 25
scalar SmartConeScenario.node[191].nic.mac1609_4 SentPackets 1
scalar SmartConeScenario.node[191].nic.mac1609_4 SNIRLostPackets 0
scalar SmartConeScenario.node[191].nic.mac1609_4 RXTXLostPackets 0
scalar SmartConeScenario.node[191].nic.mac1609_4 TotalLostPackets 0
scalar SmartConeScenario.node[191].nic.mac1609_4 DroppedPacketsInMac 0
scalar SmartConeScenario.node[191].nic.mac1609_4 TooLittleTime 0
scalar SmartConeScenario.node[191].nic.mac1609_4 TimesIntoBackoff 1
scalar SmartConeScenario.node[191].nic.mac1609_4 SlotsBackoff 1
scalar SmartConeScenario.node[191].nic.mac1609_4 NumInternalContention 0
scalar SmartConeScenario.node[191].nic.mac1609_4 totalBusyTime 0.006033
scalar SmartConeScenario.node[191].veinsmobility startTime 172
scalar SmartConeScenario.node[191].veinsmobility totalTime 82
scalar SmartConeScenario.node[191].veinsmobility stopTime 254.64594495952
scalar SmartConeScenario.node[191].veinsmobility arrived 0
scalar SmartConeScenario.node[191].veinsmobility minSpeed 16.974618852848
scalar SmartConeScenario.node[191].veinsmobility maxSpeed 20.20957312717
scalar SmartConeScenario.node[191].veinsmobility totalDistance 1546.1050940716
scalar SmartConeScenario.node[191].veinsmobility totalCO2Emission 218.48921525187
scalar SmartConeScenario.node[193].appl generatedWSMs 1
scalar SmartConeScenario.node[193].appl receivedWSMs 28
scalar SmartConeScenario.node[193].appl generatedBSMs 0
scalar SmartConeScenario.node[193].appl receivedBSMs 0
scalar SmartConeScenario.node[193].appl generatedWSAs 0
scalar SmartConeScenario.node[193].appl receivedWSAs 0
scalar SmartConeScenario.node[193].nic.phy80211p busyTime 7.956304508718e-05
scalar SmartConeScenario.node[193].nic.mac1609_4 ReceivedUnicastPackets 0
scalar SmartConeScenario.node[193].nic.mac1609_4 ReceivedBroadcasts 28
scalar SmartConeScenario.node[193].nic.mac1609_4 SentPackets 1
scalar SmartConeScenario.node[193].nic.mac1609_4 SNIRLostPackets 0
scalar SmartConeScenario.node[193].nic.mac1609_4 RXTXLostPackets 0
scalar SmartConeScenario.node[193].nic.mac1609_4 TotalLostPackets 0
scalar SmartConeScenario.node[193].nic.mac1609_4 DroppedPacketsInMac 0
scalar SmartConeScenario.node[193].nic.mac1609_4 TooLittleTime 0
scalar SmartConeScenario.node[193].nic.mac1609_4 TimesIntoBackoff 1
scalar SmartConeScenario.node[193].nic.mac1609_4 SlotsBackoff 1
scalar SmartConeScenario.node[193].nic.mac1609_4 NumInternalContention 0
scalar SmartConeScenario.node[193].nic.mac1609_4 totalBusyTime 0.006729
scalar SmartConeScenario.node[193].veinsmobility startTime 173
scalar SmartConeScenario.node[193].veinsmobility totalTime 81
scalar SmartConeScenario.node[193].veinsmobility stopTime 254.64594495952
scalar SmartConeScenario.node[193].veinsmobility arrived 0
scalar SmartConeScenario.node[193].veinsmobility minSpeed 17.533053160715
scalar SmartConeScenario.node[193].veinsmobility maxSpeed 17.660091040095
scalar SmartConeScenario.node[193].veinsmobility totalDistance 1424.8155724741
scalar SmartConeScenario.node[193].veinsmobility totalCO2Emission 196.97869358902
scalar SmartConeScenario.node[195].appl generatedWSMs 1
scalar SmartConeScenario.node[195].appl receivedWSMs 24
scalar SmartConeScenario.node[195].appl generatedBSMs 0
scalar SmartConeScenario.node[195].appl receivedBSMs 0
scalar SmartConeScenario.node[195].appl generatedWSAs 0
scalar SmartConeScenario.node[195].appl receivedWSAs 0
scalar SmartConeScenario.node[195].nic.phy80211p busyTime 6.9909397180605e-05
scalar SmartConeScenario.node[195].nic.mac1609_4 ReceivedUnicastPackets 0
scalar SmartConeScenario.node[195].nic.mac1609_4 ReceivedBroadcasts 24
scalar SmartConeScenario.node[195].nic.mac1609_4 SentPackets 1
scalar SmartConeScenario.node[195].nic.mac1609_4 SNIRLostPackets 0
scalar SmartConeScenario.node[195].nic.mac1609_4 RXTXLostPackets 0
scalar SmartConeScenario.node[195].nic.mac1609_4 TotalLostPackets 0
scalar SmartConeScenario.node[195].nic.mac1609_4 DroppedPacketsInMac 0
scalar SmartConeScenario.node[195].nic.mac1609_4 TooLittleTime 0
scalar SmartConeScenario.node[195].nic.mac1609_4 TimesIntoBackoff 1
scalar SmartConeScenario.node[195].nic.mac1609_4 SlotsBackoff 1
scalar SmartConeScenario.node[195].nic.mac1609_4 NumInternalContention 0
scalar SmartConeScenario.node[195].nic.mac1609_4 totalBusyTime 0.005801
scalar SmartConeScenario.node[195].veinsmobility startTime 175
scalar SmartConeScenario.node[195].veinsmobility totalTime 79
scalar SmartConeScenario.node[195].veinsmobility stopTime 254.64594495952
scalar SmartConeScenario.node[195].veinsmobility arrived 0
scalar SmartConeScenario.node[195].veinsmobility minSpeed 17.28481763163
scalar SmartConeScenario.node[195].veinsmobility maxSpeed 20.984189199261
scalar SmartConeScenario.node[195].veinsmobility totalDistance 1504.4453170636
scalar SmartConeScenario.node[195].veinsmobility totalCO2Emission 196.84543523641
scalar SmartConeScenario.node[197].appl generatedWSMs 1
scalar SmartConeScenario.node[197].appl receivedWSMs 27
scalar SmartConeScenario.node[197].appl generatedBSMs 0
scalar SmartConeScenario.node[197].appl receivedBSMs 0
scalar SmartConeScenario.node[197].appl generatedWSAs 0
scalar SmartConeScenario.node[197].appl receivedWSAs 0
scalar SmartConeScenario.node[197].nic.phy80211p busyTime 8.0673884557208e-05
scalar SmartConeScenario.node[197].nic.mac1609_4 ReceivedUnicastPackets 0
scalar SmartConeScenario.node[197].nic.mac1609_4 ReceivedBroadcasts 27
scalar SmartConeScenario.node[197].nic.mac1609_4 SentPackets 1
scalar SmartConeScenario.node[197].nic.mac1609_4 SNIRLostPackets 0
scalar SmartConeScenario.node[197].nic.mac1609_4 RXTXLostPackets 0
scalar SmartConeScenario.node[197].nic.mac1609_4 TotalLostPackets 0
scalar SmartConeScenario.node[197].nic.mac1609_4 DroppedPacketsInMac 0
scalar SmartConeScenario.node[197].nic.mac1609_4 TooLittleTime 0
scalar SmartConeScenario.node[197].nic.mac1609_4 TimesIntoBackoff 1
scalar SmartConeScenario.node[197].nic.mac1609_4 SlotsBackoff 3
scalar SmartConeScenario.node[197].nic.mac1609_4 NumInternalContention 0
scalar SmartConeScenario.node[197].nic.mac1609_4 totalBusyTime 0.006497
scalar SmartConeScenario.node[197].veinsmobility startTime 177
scalar SmartConeScenario.node[197].veinsmobility totalTime 77
scalar SmartConeScenario.node[197].veinsmobility stopTime 254.64594495952
scalar SmartConeScenario.node[197].veinsmobility arrived 0
scalar SmartConeScenario.node[197].veinsmobility minSpeed 16.324094427122
scalar SmartConeScenario.node[197].veinsmobility maxSpeed 17.740608852675
scalar SmartConeScenario.node[197].veinsmobility totalDistance 1348.7732621303
scalar SmartConeScenario.node[197].veinsmobility totalCO2Emission 191.94959555852
scalar SmartConeScenario.node[199].appl generatedWSMs 1
scalar SmartConeScenario.node[199].appl receivedWSMs 19
scalar SmartConeScenario.node[199].appl generatedBSMs 0
scalar SmartConeScenario.node[199].appl receivedBSMs 0
scalar SmartConeScenario.node[199].appl generatedWSAs 0
scalar SmartConeScenario.node[199].appl receivedWSAs 0
scalar SmartConeScenario.node[199].nic.phy80211p busyTime 5.8271464549205e-05
scalar SmartConeScenario.node[199].nic.mac1609_4 ReceivedUnicastPackets 0
scalar SmartConeScenario.node[199].nic.mac1609_4 ReceivedBroadcasts 19
scalar SmartConeScenario.node[199].nic.mac1609_4 SentPackets 1
scalar SmartConeScenario.node[199].nic.mac1609_4 SNIRLostPackets 0
scalar SmartConeScenario.node[199].nic.mac1609_4 RXTXLostPackets 0
scalar SmartConeScenario.node[199].nic.mac1609_4 TotalLostPackets 0
scalar SmartConeScenario.node[199].nic.mac1609_4 DroppedPacketsInMac 0
scalar SmartConeScenario.node[199].nic.mac1609_4 TooLittleTime 0
scalar SmartConeScenario.node[199].nic.mac1609_4 TimesIntoBackoff 1
scalar SmartConeScenario.node[199].nic.mac1609_4 SlotsBackoff 0
scalar SmartConeScenario.node[199].nic.mac1609_4 NumInternalContention 0
scalar SmartConeScenario.node[199].nic.mac1609_4 totalBusyTime 0.004641
scalar SmartConeScenario.node[199].veinsmobility startTime 179
scalar SmartConeScenario.node[199].veinsmobility totalTime 75
scalar SmartConeScenario.node[199].veinsmobility stopTime 254.64594495952
scalar SmartConeScenario.node[199].veinsmobility arrived 0
scalar SmartConeScenario.node[199].veinsmobility minSpeed 17.246940722119
scalar SmartConeScenario.node[199].veinsmobility maxSpeed 24.579791363077
scalar SmartConeScenario.node[199].veinsmobility totalDistance 1467.6966016571
scalar SmartConeScenario.node[199].veinsmobility totalCO2Emission 172.36447769045
scalar SmartConeScenario.manager roiArea 0
scalar SmartConeScenario.rsu[0].appl generatedWSMs 0
scalar SmartConeScenario.rsu[0].appl receivedWSMs 0
scalar SmartConeScenario.rsu[0].appl generatedBSMs 0
scalar SmartConeScenario.rsu[0].appl receivedBSMs 0
scalar SmartConeScenario.rsu[0].appl generatedWSAs 0
scalar SmartConeScenario.rsu[0].appl receivedWSAs 0
scalar SmartConeScenario.rsu[0].nic.phy80211p busyTime 0
scalar SmartConeScenario.rsu[0].nic.mac1609_4 ReceivedUnicastPackets 0
scalar SmartConeScenario.rsu[0].nic.mac1609_4 ReceivedBroadcasts 0
scalar SmartConeScenario.rsu[0].nic.mac1609_4 SentPackets 0
scalar SmartConeScenario.rsu[0].nic.mac1609_4 SNIRLostPackets 0
scalar SmartConeScenario.rsu[0].nic.mac1609_4 RXTXLostPackets 0
scalar SmartConeScenario.rsu[0].nic.mac1609_4 TotalLostPackets 0
scalar SmartConeScenario.rsu[0].nic.mac1609_4 DroppedPacketsInMac 0
scalar SmartConeScenario.rsu[0].nic.mac1609_4 TooLittleTime 0
scalar SmartConeScenario.rsu[0].nic.mac1609_4 TimesIntoBackoff 0
scalar SmartConeScenario.rsu[0].nic.mac1609_4 SlotsBackoff 0
scalar SmartConeScenario.rsu[0].nic.mac1609_4 NumInternalContention 0
scalar SmartConeScenario.rsu[0].nic.mac1609_4 totalBusyTime 0

