version 2
run General-0-20180409-00:16:12-4227
attr configname General
attr datetime 20180409-00:16:12
attr experiment General
attr inifile omnetpp.ini
attr iterationvars ""
attr iterationvarsf ""
attr measurement ""
attr network SmartConeScenario
attr processid 4227
attr repetition 0
attr replication #0
attr resultdir results
attr runnumber 0
attr seedset 0
param **.debug false
param **.coreDebug false
param *.playgroundSizeX 20000m
param *.playgroundSizeY 2500m
param *.playgroundSizeZ 50m
param *.annotations.draw true
param *.manager.updateInterval 0.1s
param *.manager.host "\"localhost\""
param *.manager.port 9999
param *.manager.autoShutdown true
param *.manager.launchConfig "xmldoc(\"smartcone.launchd.xml\")"
param *.manager.penetrationRate 0.1
param *.manager.numVehicles 10
param *.rsu[0].mobility.x 2000
param *.rsu[0].mobility.y 2000
param *.rsu[0].mobility.z 3
param *.rsu[*].applType "\"TraCIDemoRSU11p\""
param *.rsu[*].appl.headerLength "80 bit"
param *.rsu[*].appl.sendBeacons true
param *.rsu[*].appl.dataOnSch false
param *.rsu[*].appl.beaconInterval 1s
param *.rsu[*].appl.beaconUserPriority 7
param *.rsu[*].appl.dataUserPriority 5
param *.connectionManager.sendDirect true
param *.connectionManager.maxInterfDist 2600m
param *.connectionManager.drawMaxIntfDist false
param *.**.nic.mac1609_4.useServiceChannel false
param *.**.nic.mac1609_4.txPower 20mW
param *.**.nic.mac1609_4.bitrate 6Mbps
param *.**.nic.phy80211p.sensitivity -89dBm
param *.**.nic.phy80211p.useThermalNoise true
param *.**.nic.phy80211p.thermalNoise -110dBm
param *.**.nic.phy80211p.decider "xmldoc(\"config.xml\")"
param *.**.nic.phy80211p.analogueModels "xmldoc(\"config.xml\")"
param *.**.nic.phy80211p.usePropagationDelay true
param *.**.nic.phy80211p.antenna "xmldoc(\"antenna.xml\", \"/root/Antenna[@id='monopole']\")"
param *.node[*].applType "\"SmartConeApp\""
param *.node[*].appl.headerLength "80 bit"
param *.node[*].appl.sendBeacons true
param *.node[*].appl.dataOnSch false
param *.node[*].appl.beaconInterval 1s
param *.node[*].veinsmobilityType.debug true
param *.node[*].veinsmobility.x 0
param *.node[*].veinsmobility.y 0
param *.node[*].veinsmobility.z 1.895
param *.node[*0].veinsmobility.accidentCount 1
param *.node[*0].veinsmobility.accidentStart 75s
param *.node[*0].veinsmobility.accidentDuration 50s

vector 0 SmartConeScenario.node[0].veinsmobility posx ETV
vector 1 SmartConeScenario.node[0].veinsmobility posy ETV
vector 2 SmartConeScenario.node[0].veinsmobility speed ETV
vector 3 SmartConeScenario.node[0].veinsmobility acceleration ETV
vector 4 SmartConeScenario.node[0].veinsmobility co2emission ETV
4	42	2.3	3.0805465131295
4	43	2.4	8.118696918414
4	44	2.5	2.3427694783246
4	45	2.6	7.481752327929
4	55	2.7	1.9271181897301
4	56	2.8	8.500484899633
4	57	2.9	6.3741334074658
4	67	3	4.4520926943924
4	68	3.1	2.051567846572
4	69	3.2	3.3732698452248
4	70	3.3	3.290487974629
4	71	3.4	11.269444325854
4	72	3.5	-0.73858108867717
4	73	3.6	7.5721032077173
4	83	3.7	2.5005688495132
4	84	3.8	4.9332168350387
4	85	3.9	5.6533283625114
4	95	4	9.0366928126599
4	96	4.1	3.1340158943821
4	97	4.2	9.0141789631679
4	98	4.3	-0.011693158183372
4	99	4.4	8.3308381754972
4	100	4.5	0.35893016419823
4	101	4.6	4.6144297037715
4	111	4.7	4.8362973856289
4	112	4.8	6.2153389503252
4	113	4.9	9.1183352634979
4	123	5	1.8372684217069
4	124	5.1	3.1236379641721
4	125	5.2	7.5565615852786
4	126	5.3	4.6438389769646
4	127	5.4	6.709347990951
4	128	5.5	5.5805042585342
4	129	5.6	5.2805750643772
4	139	5.7	0.24412798588918
4	140	5.8	11.441085264977
4	141	5.9	-0.77859665507062
4	151	6	5.4345935924874
4	152	6.1	4.0525314165801
4	153	6.2	5.0733017087663
4	154	6.3	6.6556014475082
4	155	6.4	10.339133939436
4	156	6.5	0.77824420729204
4	157	6.6	5.2581494623553
4	167	6.7	2.9563522652889
4	168	6.8	9.7734619909584
4	169	6.9	-0.45723325969271
4	179	7	9.7977361643443
4	180	7.1	1.1126597023556
4	181	7.2	4.7216375905067
4	182	7.3	10.535665053904
4	183	7.4	1.7789132278599
4	184	7.5	6.2146289058947
4	185	7.6	6.5618224669339
4	195	7.7	-0.32412303390481
4	196	7.8	9.252164750881
4	197	7.9	2.339816797174
4	207	8	7.5741759839292
4	208	8.1	7.0078678864031
4	209	8.2	-0.58978960743595
4	210	8.3	10.063394898838
4	211	8.4	-0.16832124953612
4	212	8.5	10.450055583812
4	213	8.6	3.9109535313978
4	223	8.7	2.308063120273
4	224	8.8	4.064593895664
4	225	8.9	5.5223384800568
4	235	9	8.0144292974274
4	236	9.1	6.8396351214314
4	237	9.2	-1.0321232730083
4	238	9.3	9.8022565998866
4	239	9.4	7.132308112771
4	240	9.5	0.24529472463562
4	241	9.6	7.1947069849864
4	251	9.7	4.2508533502122
4	252	9.8	5.431977397177
4	253	9.9	6.6842391084198
4	263	10	6.4747289157246
4	264	10.1	-0.058353130761254
4	265	10.2	7.2095199615597
4	266	10.3	6.8871758094132
4	267	10.4	5.1399385054828
4	268	10.5	-0.47917778880894
4	269	10.6	8.5348270783603
4	279	10.7	2.8292696741427
4	280	10.8	6.6819222672481
4	281	10.9	2.4334085739786
4	291	11	6.6877682953559
4	292	11.1	4.2459294666643
4	293	11.2	6.5540364034562
4	294	11.3	8.1807443332983
4	295	11.4	-0.31619089294421
4	296	11.5	10.884786720369
4	297	11.6	0.973
4	309	11.7	6.1090972049129
4	310	11.8	5.2416517696466
4	311	11.9	4.1226440687078
4	323	12	6.3901020492375
4	324	12.1	5.0261979214563
4	325	12.2	5.3303626513108
4	326	12.3	6.5356107615052
4	327	12.4	7.7632705157354
4	328	12.5	0.94616470689148
4	329	12.6	7.4113937902135
4	341	12.7	3.8250919788365
4	342	12.8	3.6723858114058
4	343	12.9	5.1161570658113
4	355	13	9.943635042078
4	356	13.1	0.98880762110414
4	357	13.2	2.803866731088
4	358	13.3	6.9260861096183
4	359	13.4	7.1771845649299
4	360	13.5	3.5911231106875
4	361	13.6	4.90326404765
4	373	13.7	6.8389518422847
4	374	13.8	3.57077962997
4	375	13.9	1.6632553086229
4	387	14	6.794945855665
4	388	14.1	4.2359547685488
4	389	14.2	6.3684031806087
4	390	14.3	6.9571190400913
4	391	14.4	1.3907742132533
4	392	14.5	6.9490624897314
4	393	14.6	7.4595424397373
4	405	14.7	5.3372809305096
4	406	14.8	5.1056919747799
4	407	14.9	4.1505737880414
4	419	15	4.2190066976597
4	420	15.1	4.6870071083853
4	421	15.2	8.7950257947642
4	422	15.3	0.973
4	423	15.4	8.5985098734694
4	424	15.5	5.6048857626137
4	425	15.6	7.3415082838174
4	437	15.7	3.3883467021188
4	438	15.8	6.3835635337416
4	439	15.9	-0.66252152836776
4	451	16	4.552365731624
4	452	16.1	6.1498399438066
4	453	16.2	10.632556814573
4	454	16.3	0.973
4	455	16.4	8.4758849378551
4	456	16.5	5.3997027399234
4	457	16.6	5.4625995988698
4	469	16.7	3.4045043955101
4	470	16.8	3.5273255764818
4	471	16.9	8.1707011117754
4	483	17	1.4955129016255
4	484	17.1	4.525559903283
4	485	17.2	6.3816396247904
4	486	17.3	8.6267791077616
4	487	17.4	5.4198883449171
4	488	17.5	0.16187982159845
4	489	17.6	11.026174152946
4	501	17.7	4.8663809134308
4	502	17.8	1.5412041279924
4	503	17.9	8.2835138617302
4	515	18	3.1360606701841
4	516	18.1	3.7103136051053
4	517	18.2	6.8517518378021
4	518	18.3	0.63979051039522
4	519	18.4	4.7202133281694
4	520	18.5	7.9692995921492
4	521	18.6	8.7125811469508
4	533	18.7	0.11425698885026
4	534	18.8	6.559159179584
4	535	18.9	3.6492980565762
4	547	19	7.3494753124956
4	548	19.1	2.3938569070767
4	549	19.2	9.0023731673147
4	550	19.3	1.5633294027665
4	551	19.4	5.4003951056616
4	552	19.5	8.0852943528575
4	553	19.6	1.4737096334331
4	565	19.7	8.380121598816
4	566	19.8	5.8207561243178
4	567	19.9	2.1671915023345
4	579	20	3.5830139801729
4	580	20.1	6.5448858045075
4	581	20.2	3.8978502419467
4	582	20.3	5.1669062121755
4	583	20.4	9.0689580925991
4	584	20.5	5.2031788844046
4	585	20.6	1.1971748193963
4	597	20.7	3.7890733707005
4	598	20.8	3.8075420529804
4	599	20.9	10.361737475455
4	611	21	-0.42110298372773
4	612	21.1	11.009370124718
4	613	21.2	4.0361423589187
4	614	21.3	3.1289224998718
4	615	21.4	3.9519071508126
4	616	21.5	7.4844786220869
4	617	21.6	3.6807299058883
4	629	21.7	8.4449146116325
4	630	21.8	0.43413175993981
4	631	21.9	6.1643970590917
4	643	22	8.0819016206311
4	644	22.1	0.94366464736796
4	645	22.2	4.5703672560384
4	646	22.3	5.7055975064307
4	647	22.4	5.7322982270663
4	648	22.5	3.2234433815527
4	649	22.6	9.1892516327892
4	661	22.7	4.4127623801109
4	662	22.8	1.9747206373869
4	663	22.9	6.4741710977538
4	675	23	6.3174796645378
4	676	23.1	2.9986207416941
4	677	23.2	5.8100801381447
4	678	23.3	5.3396714381009
4	679	23.4	8.0938448401003
4	680	23.5	5.7150681639072
4	681	23.6	3.6067019550162
4	693	23.7	5.7515693520446
4	694	23.8	5.0855579875434
4	695	23.9	4.1589131259644
4	707	24	0.4935327634408
4	708	24.1	9.2293021203139
4	709	24.2	4.8219683787071
4	710	24.3	2.5321774057983
4	711	24.4	6.4495393364484
4	712	24.5	4.5394410692659
4	713	24.6	4.3769238684008
4	725	24.7	0.973
4	726	24.8	0.973
4	727	24.9	0.973
4	739	25	0.973
4	740	25.1	0.973
4	741	25.2	0.973
4	742	25.3	0.973
4	743	25.4	0.973
4	744	25.5	0.973
4	745	25.6	0.973
4	757	25.7	0.973
4	758	25.8	0.973
4	759	25.9	0.973
4	771	26	0.973
4	772	26.1	0.973
4	773	26.2	0.973
4	774	26.3	0.973
4	775	26.4	0.973
4	776	26.5	0.973
4	777	26.6	0.973
4	789	26.7	0.973
4	790	26.8	0.973
4	791	26.9	0.973
4	803	27	0.973
4	804	27.1	0.973
4	805	27.2	0.973
4	806	27.3	0.973
4	807	27.4	0.973
4	808	27.5	0.973
4	809	27.6	0.973
4	821	27.7	0.973
4	822	27.8	0.973
4	823	27.9	0.973
4	835	28	0.973
4	836	28.1	0.973
4	837	28.2	0.973
4	838	28.3	0.973
4	839	28.4	0.973
4	840	28.5	0.973
4	841	28.6	0.973
4	853	28.7	0.973
4	854	28.8	0.973
4	855	28.9	0.973
4	867	29	0.973
4	868	29.1	0.973
4	869	29.2	0.973
4	870	29.3	0.973
4	871	29.4	0.973
4	872	29.5	0.973
4	873	29.6	0.973
4	885	29.7	0.973
4	886	29.8	0.973
4	887	29.9	0.973
4	899	30	0.973
4	900	30.1	0.973
4	901	30.2	0.973
4	902	30.3	0.973
4	903	30.4	0.973
4	904	30.5	0.973
4	905	30.6	0.973
4	917	30.7	0.973
4	918	30.8	0.973
4	919	30.9	0.973
4	931	31	0.973
4	932	31.1	0.973
4	933	31.2	0.973
4	934	31.3	0.973
4	935	31.4	0.973
4	936	31.5	0.973
4	937	31.6	0.973
4	949	31.7	0.973
4	950	31.8	0.973
4	951	31.9	0.973
4	963	32	0.973
4	964	32.1	0.973
4	965	32.2	0.973
4	966	32.3	0.973
4	967	32.4	0.973
4	968	32.5	0.973
4	969	32.6	0.973
4	981	32.7	0.973
4	982	32.8	0.973
4	983	32.9	0.973
4	995	33	0.973
4	996	33.1	0.973
4	997	33.2	0.973
4	998	33.3	0.973
4	999	33.4	0.973
4	1000	33.5	0.973
4	1001	33.6	0.973
4	1013	33.7	0.973
4	1014	33.8	0.973
4	1015	33.9	0.973
4	1027	34	0.973
4	1028	34.1	0.973
4	1029	34.2	0.973
4	1030	34.3	0.973
4	1031	34.4	0.973
4	1032	34.5	0.973
4	1033	34.6	0.973
4	1045	34.7	0.973
4	1046	34.8	0.973
4	1047	34.9	0.973
4	1059	35	0.973
4	1060	35.1	0.973
4	1061	35.2	0.973
4	1062	35.3	0.973
4	1063	35.4	0.973
4	1064	35.5	0.973
4	1065	35.6	1.2239026285838
4	1077	35.7	0.973
4	1078	35.8	0.973
4	1079	35.9	0.973
4	1091	36	0.973
4	1092	36.1	0.973
4	1093	36.2	1.2053478875092
4	1094	36.3	0.973
4	1095	36.4	1.2397349901874
4	1096	36.5	0.973
4	1097	36.6	0.973
4	1109	36.7	0.973
4	1110	36.8	0.973
4	1111	36.9	1.3306808932786
4	1123	37	0.973
4	1124	37.1	0.973
4	1125	37.2	0.973
4	1126	37.3	1.2309086281972
4	1127	37.4	0.973
4	1128	37.5	1.8234037068906
4	1129	37.6	1.6855833613714
4	1141	37.7	2.2080442278595
4	1142	37.8	2.1417196719816
4	1143	37.9	2.0503983607071
4	1155	38	2.474948405239
4	1156	38.1	2.2094802761667
4	1157	38.2	2.2947609602607
4	1158	38.3	2.3987504518917
4	1159	38.4	2.8193847920241
4	1160	38.5	2.1384360002354
4	1161	38.6	2.3731624050853
4	1173	38.7	2.5610140320276
4	1174	38.8	2.7971339301925
4	1175	38.9	2.3628314877402
4	1187	39	2.3989886426707
4	1188	39.1	3.3460741592888
4	1189	39.2	2.7895655039717
4	1190	39.3	2.8659898717585
4	1191	39.4	3.3382939707899
4	1192	39.5	3.1428439242758
4	1193	39.6	3.4770354233189
4	1205	39.7	3.7584099805723
4	1206	39.8	2.8121646790755
4	1207	39.9	3.5804740209981
4	1219	40	4.1253043024873
4	1220	40.1	4.0346733350454
4	1221	40.2	2.8701128070977
4	1222	40.3	4.2292035967514
4	1223	40.4	4.3730888681347
4	1224	40.5	3.3309297206256
4	1225	40.6	3.1729464782384
4	1237	40.7	3.1800810682297
4	1238	40.8	4.5945597801122
4	1239	40.9	4.3348298934951
4	1251	41	3.4059281318042
4	1252	41.1	3.6776923708317
4	1253	41.2	4.608204040721
4	1254	41.3	5.077381365928
4	1255	41.4	3.8220353178766
4	1256	41.5	4.9172941371367
4	1257	41.6	5.4008010098358
4	1269	41.7	4.4500372141274
4	1270	41.8	4.0875755018518
4	1271	41.9	3.7022269787431
4	1283	42	4.9950182724455
4	1284	42.1	4.026373485392
4	1285	42.2	4.6357606774068
4	1286	42.3	4.8033263886427
4	1287	42.4	5.3941142261093
4	1288	42.5	4.2972867179064
4	1289	42.6	5.338708440663
4	1301	42.7	6.1047445303021
4	1302	42.8	4.3548734253661
4	1303	42.9	5.1241904448263
4	1315	43	4.5147085421803
4	1316	43.1	6.48596865733
4	1317	43.2	5.829315437791
4	1318	43.3	6.4349918414075
4	1319	43.4	6.2535726152849
4	1320	43.5	6.5447585798922
4	1321	43.6	6.8509416812403
4	1333	43.7	5.5210560979708
4	1334	43.8	5.5393609507932
4	1335	43.9	7.1575921052396
4	1347	44	5.4243944127704
4	1348	44.1	6.0983307190332
4	1349	44.2	5.0403358228951
4	1350	44.3	6.3563679077958
4	1351	44.4	6.181387996634
4	1352	44.5	7.0321430395876
4	1353	44.6	7.7705144496337
4	1365	44.7	8.125999313219
4	1366	44.8	6.6316857721149
4	1367	44.9	5.5451157732756
4	1379	45	7.7982455123803
4	1380	45.1	5.6854939694857
4	1381	45.2	7.9002503453767
4	1382	45.3	7.2863476670916
4	1383	45.4	6.9992027721226
4	1384	45.5	8.3811773801858
4	1385	45.6	8.6978971153819
4	1397	45.7	7.549908511671
4	1398	45.8	6.220848710634
4	1399	45.9	6.3696573381016
4	1411	46	7.5313782676318
4	1412	46.1	8.2152768696061
4	1413	46.2	5.9262561651162
4	1414	46.3	8.6023038120859
4	1415	46.4	8.9868564758383
4	1416	46.5	9.3142775075274
4	1417	46.6	7.8002958894989
4	1429	46.7	8.1971955041376
4	1430	46.8	8.4913378655122
4	1431	46.9	7.0276142090536
4	1443	47	6.9079790636752
4	1444	47.1	8.1577792631213
4	1445	47.2	7.4106029928478
4	1446	47.3	9.5660212244054
4	1447	47.4	9.6585783349988
4	1448	47.5	9.52098389124
4	1449	47.6	6.7245436735931
4	1461	47.7	6.8210529997405
4	1462	47.8	7.0888423361779
4	1463	47.9	10.460723268519
4	1475	48	11.086278254828
4	1476	48.1	9.526037375875
4	1477	48.2	10.986416278821
4	1478	48.3	8.3311190108518
4	1479	48.4	9.200241979411
4	1480	48.5	10.33485904843
4	1481	48.6	10.924077792116
4	1493	48.7	8.0470166567538
4	1494	48.8	9.5043077180634
4	1495	48.9	11.771928720975
4	1507	49	8.7031718098019
4	1508	49.1	8.2986918736035
4	1509	49.2	10.265083925388
4	1510	49.3	7.9904703561684
4	1511	49.4	12.025129356015
4	1512	49.5	10.234570684389
4	1513	49.6	8.5035093572313
4	1525	49.7	8.3856083658614
4	1526	49.8	11.881729213629
4	1527	49.9	11.101212300281
4	1539	50	9.887175534214
4	1540	50.1	10.956283417792
4	1541	50.2	11.9519142498
4	1542	50.3	11.022958015954
4	1543	50.4	11.471320697624
4	1544	50.5	11.706811096882
4	1545	50.6	8.9627232879682
4	1557	50.7	10.992614229112
4	1558	50.8	12.597852804866
4	1559	50.9	12.539898050231
4	1571	51	12.515167644246
4	1572	51.1	10.136134676992
4	1573	51.2	11.139618674551
4	1574	51.3	13.244872385195
4	1575	51.4	14.340695966826
4	1576	51.5	13.422592283258
4	1577	51.6	9.6619539674327
4	1589	51.7	14.811020552495
4	1590	51.8	10.50096820093
4	1591	51.9	14.499779295665
4	1603	52	10.381139479296
4	1604	52.1	11.829624716635
4	1605	52.2	13.516189846694
4	1606	52.3	15.021019188836
4	1607	52.4	9.9053074657592
4	1608	52.5	9.794125718738
4	1609	52.6	12.52646505409
4	1621	52.7	13.413943071683
4	1622	52.8	11.115146908581
4	1623	52.9	13.725728658045
4	1635	53	13.841955899042
4	1636	53.1	15.104405537416
4	1637	53.2	12.444175242585
4	1638	53.3	14.896539990543
4	1639	53.4	11.17248979183
4	1640	53.5	14.922084397004
4	1641	53.6	11.340915378847
4	1653	53.7	13.365191444137
4	1654	53.8	13.272842334943
4	1655	53.9	11.708239388074
4	1667	54	10.861623889079
4	1668	54.1	16.554321737863
4	1669	54.2	11.795922573674
4	1670	54.3	14.399789538075
4	1671	54.4	15.537846209066
4	1672	54.5	16.012670018699
4	1673	54.6	16.955674919124
4	1685	54.7	15.543756254539
4	1686	54.8	11.699737276125
4	1687	54.9	15.483467764985
4	1699	55	12.205452858277
4	1700	55.1	12.999794582707
4	1701	55.2	13.142040954372
4	1702	55.3	15.069626519763
4	1703	55.4	16.415511374703
4	1704	55.5	12.697104903428
4	1705	55.6	15.173574702498
4	1717	55.7	18.96107069197
4	1718	55.8	16.678636286815
4	1719	55.9	18.638031611582
4	1731	56	13.710641436752
4	1732	56.1	9.1562688408601
4	1733	56.2	6.725990155803
4	1734	56.3	4.0363615066632
4	1735	56.4	4.2514274663468
4	1736	56.5	4.6361711438855
4	1737	56.6	4.5036225960365
4	1749	56.7	5.4660831193794
4	1750	56.8	5.7687845779624
4	1751	56.9	3.0016802799626
4	1763	57	5.7806290095923
4	1764	57.1	4.0083522899284
4	1765	57.2	4.0974019158302
4	1766	57.3	5.406943922458
4	1767	57.4	9.0739360494289
4	1768	57.5	1.5463302993489
4	1769	57.6	3.6494680420068
4	1781	57.7	4.8787188770334
4	1782	57.8	5.5145852763445
4	1783	57.9	9.673053123667
4	1795	58	-0.15879909216709
4	1796	58.1	9.0083465256869
4	1797	58.2	3.7762957099779
4	1798	58.3	7.7141083865434
4	1799	58.4	1.8264307557016
4	1800	58.5	5.2327442244308
4	1801	58.6	6.7030610476389
4	1813	58.7	4.6919078802093
4	1814	58.8	1.0401732969788
4	1815	58.9	6.7113377307245
4	1827	59	3.4570568370333
4	1828	59.1	5.9858670272929
4	1829	59.2	10.322032742267
4	1830	59.3	0.973
4	1831	59.4	4.8546329690339
4	1832	59.5	9.3309194938543
4	1833	59.6	6.1881399865609
4	1845	59.7	3.6418710756508
4	1846	59.8	3.3750860762419
4	1847	59.9	7.8434535646173
4	1859	60	1.9172945964571
4	1860	60.1	8.0774600610042
4	1861	60.2	4.5556473611884
4	1862	60.3	0.68973247520145
4	1863	60.4	9.6709168248939
4	1864	60.5	1.0437812850289
4	1865	60.6	9.504837984928
4	1877	60.7	6.2791215976823
4	1878	60.8	-1.0000579076883
4	1879	60.9	4.7866701221793
4	1891	61	4.8224477881254
4	1892	61.1	9.3547320865164
4	1893	61.2	2.0166362427237
4	1894	61.3	8.0840961474446
4	1895	61.4	2.3362171270523
4	1896	61.5	5.934591964232
4	1897	61.6	2.8312955486229
4	1909	61.7	9.400775732428
4	1910	61.8	7.0427811382839
4	1911	61.9	0.57420535644402
4	1923	62	5.7018491957418
4	1924	62.1	7.0240095524955
4	1925	62.2	3.6536381372947
4	1926	62.3	6.1072594734322
4	1927	62.4	3.8025181121021
4	1928	62.5	2.1665781033051
4	1929	62.6	8.9397150581137
4	1941	62.7	1.76474177388
4	1942	62.8	7.9425376083162
4	1943	62.9	7.8674434603598
4	1955	63	3.1536525285437
4	1956	63.1	4.7794893758103
4	1957	63.2	1.7474044362068
4	1958	63.3	10.253943680502
4	1959	63.4	3.2414174136796
4	1960	63.5	0.29781764889467
4	1961	63.6	6.9500055489392
4	1973	63.7	9.4711607002095
4	1974	63.8	5.1642656836204
4	1975	63.9	5.1215147499379
4	1987	64	-0.55114573290976
4	1988	64.1	7.8356764028855
4	1989	64.2	2.9553912536223
4	1990	64.3	4.9360232934386
4	1991	64.4	4.3631503204211
4	1992	64.5	8.1234129508852
4	1993	64.6	4.7275665822443
4	2005	64.7	5.5613576048976
4	2006	64.8	1.7324121389196
4	2007	64.9	6.1721688943517
4	2019	65	5.1484137241714
4	2020	65.1	4.8290022207434
4	2021	65.2	8.2527735873376
4	2022	65.3	2.4185512003232
4	2023	65.4	7.7245867964676
4	2024	65.5	2.4668577840585
4	2025	65.6	8.9117642956034
4	2037	65.7	2.1720379143318
4	2038	65.8	2.9443987256152
4	2039	65.9	3.9917844083963
4	2051	66	10.310931900077
4	2052	66.1	0.12384186299315
4	2053	66.2	8.949096221684
4	2054	66.3	2.112871207602
4	2055	66.4	8.981701964974
4	2056	66.5	-0.25638355427005
4	2057	66.6	7.1854238046275
4	2069	66.7	6.4754098272223
4	2070	66.8	6.1802379635611
4	2071	66.9	2.6771495413761
4	2083	67	4.8289359695046
4	2084	67.1	4.7480155468566
4	2085	67.2	3.8650963822681
4	2086	67.3	5.7183880716071
4	2087	67.4	9.1879794790849
4	2088	67.5	3.3027966587499
4	2089	67.6	1.2118009660669
4	2101	67.7	8.8085718678411
4	2102	67.8	2.0533216598792
4	2103	67.9	6.4378006010939
4	2115	68	2.3223446243892
4	2116	68.1	5.2412704800682
4	2117	68.2	4.6834571236641
4	2118	68.3	9.8666418561179
4	2119	68.4	0.3122496301591
4	2120	68.5	11.860969838189
4	2121	68.6	1.6714601604439
4	2133	68.7	3.9188332898768
4	2134	68.8	7.0968863056923
4	2135	68.9	3.5666922961074
4	2147	69	7.0779557867676
4	2148	69.1	0.41702951648194
4	2149	69.2	8.0916518094872
4	2150	69.3	3.1022414092376
4	2151	69.4	3.6121585393305
4	2152	69.5	10.814632430015
4	2153	69.6	-0.16980671188112
4	2165	69.7	9.1140284005908
4	2166	69.8	4.7178117422033
4	2167	69.9	1.6723678702581
4	2179	70	8.9373627786022
4	2180	70.1	5.0227896468652
4	2181	70.2	0.41136523813189
4	2182	70.3	9.8628260616063
4	2183	70.4	2.9165182608111
4	2184	70.5	2.2014661043642
4	2185	70.6	11.247450157738
4	2197	70.7	1.7284903867832
4	2198	70.8	3.1795449530061
4	2199	70.9	7.4872751523741
4	2211	71	7.7590549455799
4	2212	71.1	1.8422480666427
4	2213	71.2	5.3334327073974
4	2214	71.3	5.608229779267
4	2215	71.4	2.6657184678315
4	2216	71.5	3.8478417372646
4	2217	71.6	6.2635142287285
4	2229	71.7	5.3283852751126
4	2230	71.8	5.1207652050405
4	2231	71.9	7.3988617019965
4	2243	72	4.5574127686571
4	2244	72.1	2.7557271945684
4	2245	72.2	9.4637373284594
4	2246	72.3	4.7863197684519
4	2247	72.4	0.85831319236551
4	2248	72.5	7.719583614915
4	2249	72.6	0.82406475547442
4	2261	72.7	6.8666221000304
4	2262	72.8	6.8889649864247
4	2263	72.9	3.8180176042746
4	2275	73	3.667128351767
4	2276	73.1	6.5330868632496
4	2277	73.2	8.8387473150048
4	2278	73.3	2.3278367357214
4	2279	73.4	3.7156599147312
4	2280	73.5	8.0830290226577
4	2281	73.6	2.7295202705003
4	2293	73.7	6.6771172454193
4	2294	73.8	5.2551314733676
4	2295	73.9	1.1970040041527
4	2307	74	5.7245078071351
4	2308	74.1	8.3254918035256
4	2309	74.2	6.6296988899555
4	2310	74.3	-0.23324526154768
4	2311	74.4	3.8195939623629
4	2312	74.5	11.069993879108
4	2313	74.6	0.50569046091691
4	2325	74.7	10.188970417941
4	2326	74.8	4.9118330837397
4	2327	74.9	0.973
4	2339	75	5.191756182899
4	2340	75.1	9.1713284284986
4	2341	75.2	3.3307840442178
4	2342	75.3	2.0128791717591
4	2343	75.4	6.1856079861039
4	2344	75.5	9.1957601904917
4	2345	75.6	3.9416829463017
4	2357	75.7	2.9094618189365
4	2358	75.8	9.7288604444187
4	2359	75.9	-0.74420810578511
4	2371	76	4.1655868868792
4	2372	76.1	11.236754226002
4	2373	76.2	4.5272495577989
4	2374	76.3	4.3310473096838
4	2375	76.4	3.9768549945556
4	2376	76.5	1.7231116057347
4	2377	76.6	8.8674875505934
4	2389	76.7	1.5490639105607
4	2390	76.8	6.5044628799947
4	2391	76.9	5.1359961583924
4	2403	77	5.7172081677419
4	2405	77.1	0.973
4	2406	77.2	0.973
4	2407	77.3	0.973
4	2408	77.4	0.973
4	2409	77.5	0.973
4	2410	77.6	0.973
4	2422	77.7	0.973
4	2423	77.8	0.973
4	2424	77.9	0.973
4	2436	78	0.973
4	2437	78.1	0.973
4	2438	78.2	0.973
4	2439	78.3	0.973
4	2440	78.4	0.973
4	2441	78.5	0.973
4	2442	78.6	0.973
4	2454	78.7	0.973
4	2455	78.8	0.973
4	2456	78.9	0.973
4	2468	79	0.973
4	2469	79.1	0.973
4	2470	79.2	0.973
4	2471	79.3	0.973
4	2472	79.4	0.973
4	2473	79.5	0.973
4	2474	79.6	0.973
4	2486	79.7	0.973
4	2487	79.8	0.973
4	2488	79.9	0.973
4	2500	80	0.973
4	2501	80.1	0.973
4	2502	80.2	0.973
4	2503	80.3	0.973
4	2504	80.4	0.973
4	2505	80.5	0.973
4	2506	80.6	0.973
4	2518	80.7	0.973
4	2519	80.8	0.973
4	2520	80.9	0.973
4	2532	81	0.973
4	2533	81.1	0.973
4	2534	81.2	0.973
4	2535	81.3	0.973
4	2536	81.4	0.973
4	2537	81.5	0.973
4	2538	81.6	0.973
4	2550	81.7	0.973
4	2551	81.8	0.973
4	2552	81.9	0.973
4	2564	82	0.973
4	2565	82.1	0.973
4	2566	82.2	0.973
4	2567	82.3	0.973
4	2568	82.4	0.973
4	2569	82.5	0.973
4	2570	82.6	0.973
4	2582	82.7	0.973
4	2583	82.8	0.973
4	2584	82.9	0.973
4	2596	83	0.973
4	2597	83.1	0.973
4	2598	83.2	0.973
4	2599	83.3	0.973
4	2600	83.4	0.973
4	2601	83.5	0.973
4	2602	83.6	0.973
4	2614	83.7	0.973
4	2615	83.8	0.973
4	2616	83.9	0.973
4	2628	84	0.973
4	2629	84.1	0.973
4	2630	84.2	0.973
4	2631	84.3	0.973
4	2632	84.4	0.973
4	2633	84.5	0.973
4	2634	84.6	0.973
4	2646	84.7	0.973
4	2647	84.8	0.973
4	2648	84.9	0.973
4	2660	85	0.973
4	2661	85.1	0.973
4	2662	85.2	0.973
4	2663	85.3	0.973
4	2664	85.4	0.973
4	2665	85.5	0.973
4	2666	85.6	0.973
4	2678	85.7	0.973
4	2679	85.8	0.973
4	2680	85.9	0.973
4	2692	86	0.973
4	2693	86.1	0.973
4	2694	86.2	0.973
4	2695	86.3	0.973
4	2696	86.4	0.973
4	2697	86.5	0.973
4	2698	86.6	0.973
4	2710	86.7	0.973
4	2711	86.8	0.973
4	2712	86.9	0.973
4	2724	87	0.973
4	2725	87.1	0.973
4	2726	87.2	0.973
4	2727	87.3	0.973
4	2728	87.4	0.973
4	2729	87.5	0.973
4	2730	87.6	0.973
4	2742	87.7	0.973
4	2743	87.8	0.973
4	2744	87.9	0.973
4	2756	88	0.973
4	2757	88.1	0.973
4	2758	88.2	0.973
4	2759	88.3	0.973
4	2760	88.4	0.973
4	2761	88.5	0.973
4	2762	88.6	0.973
4	2774	88.7	0.973
4	2775	88.8	0.973
4	2776	88.9	0.973
4	2788	89	0.973
4	2789	89.1	0.973
4	2790	89.2	0.973
4	2791	89.3	0.973
4	2792	89.4	0.973
4	2793	89.5	0.973
4	2794	89.6	0.973
4	2806	89.7	0.973
4	2807	89.8	0.973
4	2808	89.9	0.973
4	2820	90	0.973
4	2821	90.1	0.973
4	2822	90.2	0.973
4	2823	90.3	0.973
4	2824	90.4	0.973
4	2825	90.5	0.973
4	2826	90.6	0.973
4	2838	90.7	0.973
4	2839	90.8	0.973
4	2840	90.9	0.973
4	2852	91	0.973
4	2853	91.1	0.973
4	2854	91.2	0.973
4	2855	91.3	0.973
4	2856	91.4	0.973
4	2857	91.5	0.973
4	2858	91.6	0.973
4	2870	91.7	0.973
4	2871	91.8	0.973
4	2872	91.9	0.973
4	2884	92	0.973
4	2885	92.1	0.973
4	2886	92.2	0.973
4	2887	92.3	0.973
4	2888	92.4	0.973
4	2889	92.5	0.973
4	2890	92.6	0.973
4	2902	92.7	0.973
4	2903	92.8	0.973
4	2904	92.9	0.973
4	2916	93	0.973
4	2917	93.1	0.973
4	2918	93.2	0.973
4	2919	93.3	0.973
4	2920	93.4	0.973
4	2921	93.5	0.973
4	2922	93.6	0.973
4	2934	93.7	0.973
4	2935	93.8	0.973
4	2936	93.9	0.973
4	2948	94	0.973
4	2949	94.1	0.973
4	2950	94.2	0.973
4	2951	94.3	0.973
4	2952	94.4	0.973
4	2953	94.5	0.973
4	2954	94.6	0.973
4	2966	94.7	0.973
4	2967	94.8	0.973
4	2968	94.9	0.973
4	2980	95	0.973
4	2981	95.1	0.973
4	2982	95.2	0.973
4	2983	95.3	0.973
4	2984	95.4	0.973
4	2985	95.5	0.973
4	2986	95.6	0.973
4	2998	95.7	0.973
4	2999	95.8	0.973
4	3000	95.9	0.973
4	3012	96	0.973
4	3013	96.1	0.973
4	3014	96.2	0.973
4	3015	96.3	0.973
4	3016	96.4	0.973
4	3017	96.5	0.973
4	3018	96.6	0.973
4	3030	96.7	0.973
4	3031	96.8	0.973
4	3032	96.9	0.973
4	3044	97	0.973
4	3045	97.1	0.973
4	3046	97.2	0.973
4	3047	97.3	0.973
4	3048	97.4	0.973
4	3049	97.5	0.973
4	3050	97.6	0.973
4	3062	97.7	0.973
4	3063	97.8	0.973
4	3064	97.9	0.973
4	3076	98	0.973
4	3077	98.1	0.973
4	3078	98.2	0.973
4	3079	98.3	0.973
4	3080	98.4	0.973
4	3081	98.5	0.973
4	3082	98.6	0.973
4	3094	98.7	0.973
4	3095	98.8	0.973
4	3096	98.9	0.973
4	3108	99	0.973
4	3109	99.1	0.973
4	3110	99.2	0.973
4	3111	99.3	0.973
4	3112	99.4	0.973
4	3113	99.5	0.973
4	3114	99.6	0.973
4	3126	99.7	0.973
4	3127	99.8	0.973
4	3128	99.9	0.973
4	3140	100	0.973
4	3141	100.1	0.973
4	3142	100.2	0.973
4	3143	100.3	0.973
4	3144	100.4	0.973
4	3145	100.5	0.973
4	3146	100.6	0.973
4	3158	100.7	0.973
4	3159	100.8	0.973
4	3160	100.9	0.973
4	3172	101	0.973
4	3173	101.1	0.973
4	3174	101.2	0.973
4	3175	101.3	0.973
4	3176	101.4	0.973
4	3177	101.5	0.973
4	3178	101.6	0.973
4	3190	101.7	0.973
4	3191	101.8	0.973
4	3192	101.9	0.973
4	3204	102	0.973
4	3205	102.1	0.973
4	3206	102.2	0.973
4	3207	102.3	0.973
4	3208	102.4	0.973
4	3209	102.5	0.973
4	3210	102.6	0.973
4	3222	102.7	0.973
4	3223	102.8	0.973
4	3224	102.9	0.973
4	3236	103	0.973
4	3237	103.1	0.973
4	3238	103.2	0.973
4	3239	103.3	0.973
4	3240	103.4	0.973
4	3241	103.5	0.973
4	3242	103.6	0.973
4	3254	103.7	0.973
4	3255	103.8	0.973
4	3256	103.9	0.973
4	3268	104	0.973
4	3269	104.1	0.973
4	3270	104.2	0.973
4	3271	104.3	0.973
4	3272	104.4	0.973
4	3273	104.5	0.973
4	3274	104.6	0.973
4	3286	104.7	0.973
4	3287	104.8	0.973
4	3288	104.9	0.973
4	3300	105	0.973
4	3301	105.1	0.973
4	3302	105.2	0.973
4	3303	105.3	0.973
4	3304	105.4	0.973
4	3305	105.5	0.973
4	3306	105.6	0.973
4	3318	105.7	0.973
4	3319	105.8	0.973
4	3320	105.9	0.973
4	3332	106	0.973
4	3333	106.1	0.973
4	3334	106.2	0.973
4	3335	106.3	0.973
4	3336	106.4	0.973
4	3337	106.5	0.973
4	3338	106.6	0.973
4	3350	106.7	0.973
4	3351	106.8	0.973
4	3352	106.9	0.973
4	3364	107	0.973
4	3365	107.1	0.973
4	3366	107.2	0.973
4	3367	107.3	0.973
4	3368	107.4	0.973
4	3369	107.5	0.973
4	3370	107.6	0.973
4	3382	107.7	0.973
4	3383	107.8	0.973
4	3384	107.9	0.973
4	3396	108	0.973
4	3397	108.1	0.973
4	3398	108.2	0.973
4	3399	108.3	0.973
4	3400	108.4	0.973
4	3401	108.5	0.973
4	3402	108.6	0.973
4	3414	108.7	0.973
4	3415	108.8	0.973
4	3416	108.9	0.973
4	3428	109	0.973
4	3429	109.1	0.973
4	3430	109.2	0.973
4	3431	109.3	0.973
4	3432	109.4	0.973
4	3433	109.5	0.973
4	3434	109.6	0.973
4	3446	109.7	0.973
4	3447	109.8	0.973
4	3448	109.9	0.973
4	3460	110	0.973
4	3461	110.1	0.973
4	3462	110.2	0.973
4	3463	110.3	0.973
4	3464	110.4	0.973
4	3465	110.5	0.973
4	3466	110.6	0.973
4	3478	110.7	0.973
4	3479	110.8	0.973
4	3480	110.9	0.973
4	3492	111	0.973
4	3493	111.1	0.973
4	3494	111.2	0.973
4	3495	111.3	0.973
4	3496	111.4	0.973
4	3497	111.5	0.973
4	3498	111.6	0.973
4	3510	111.7	0.973
4	3511	111.8	0.973
4	3512	111.9	0.973
4	3524	112	0.973
4	3525	112.1	0.973
4	3526	112.2	0.973
4	3527	112.3	0.973
4	3528	112.4	0.973
4	3529	112.5	0.973
4	3530	112.6	0.973
4	3542	112.7	0.973
4	3543	112.8	0.973
4	3544	112.9	0.973
4	3556	113	0.973
4	3557	113.1	0.973
4	3558	113.2	0.973
4	3559	113.3	0.973
4	3560	113.4	0.973
4	3561	113.5	0.973
4	3562	113.6	0.973
4	3574	113.7	0.973
4	3575	113.8	0.973
4	3576	113.9	0.973
4	3588	114	0.973
4	3589	114.1	0.973
4	3590	114.2	0.973
4	3591	114.3	0.973
4	3592	114.4	0.973
4	3593	114.5	0.973
4	3594	114.6	0.973
4	3606	114.7	0.973
4	3607	114.8	0.973
4	3608	114.9	0.973
4	3620	115	0.973
4	3621	115.1	0.973
4	3622	115.2	0.973
4	3623	115.3	0.973
4	3624	115.4	0.973
4	3625	115.5	0.973
4	3626	115.6	0.973
4	3638	115.7	0.973
4	3639	115.8	0.973
4	3640	115.9	0.973
4	3652	116	0.973
4	3653	116.1	0.973
4	3654	116.2	0.973
4	3655	116.3	0.973
4	3656	116.4	0.973
4	3657	116.5	0.973
4	3658	116.6	0.973
4	3670	116.7	0.973
4	3671	116.8	0.973
4	3672	116.9	0.973
4	3684	117	0.973
4	3685	117.1	0.973
4	3686	117.2	0.973
4	3687	117.3	0.973
4	3688	117.4	0.973
4	3689	117.5	0.973
4	3690	117.6	0.973
4	3702	117.7	0.973
4	3703	117.8	0.973
4	3704	117.9	0.973
4	3716	118	0.973
4	3717	118.1	0.973
4	3718	118.2	0.973
4	3719	118.3	0.973
4	3720	118.4	0.973
4	3721	118.5	0.973
4	3722	118.6	0.973
4	3734	118.7	0.973
4	3735	118.8	0.973
4	3736	118.9	0.973
4	3748	119	0.973
4	3749	119.1	0.973
4	3750	119.2	0.973
4	3751	119.3	0.973
4	3752	119.4	0.973
4	3753	119.5	0.973
4	3754	119.6	0.973
4	3766	119.7	0.973
4	3767	119.8	0.973
4	3768	119.9	0.973
4	3780	120	0.973
4	3781	120.1	0.973
4	3782	120.2	0.973
4	3783	120.3	0.973
4	3784	120.4	0.973
4	3785	120.5	0.973
4	3786	120.6	0.973
4	3798	120.7	0.973
4	3799	120.8	0.973
4	3800	120.9	0.973
4	3812	121	0.973
4	3813	121.1	0.973
4	3814	121.2	0.973
4	3815	121.3	0.973
4	3816	121.4	0.973
4	3817	121.5	0.973
4	3818	121.6	0.973
4	3830	121.7	0.973
4	3831	121.8	0.973
4	3832	121.9	0.973
4	3844	122	0.973
4	3845	122.1	0.973
4	3846	122.2	0.973
4	3847	122.3	0.973
4	3848	122.4	0.973
4	3849	122.5	0.973
4	3850	122.6	0.973
4	3862	122.7	0.973
4	3863	122.8	0.973
4	3864	122.9	0.973
4	3876	123	0.973
4	3877	123.1	0.973
4	3878	123.2	0.973
4	3879	123.3	0.973
4	3880	123.4	0.973
4	3881	123.5	0.973
4	3882	123.6	0.973
4	3894	123.7	0.973
4	3895	123.8	0.973
4	3896	123.9	0.973
4	3908	124	0.973
4	3909	124.1	0.973
4	3910	124.2	0.973
4	3911	124.3	0.973
4	3912	124.4	0.973
4	3913	124.5	0.973
4	3914	124.6	0.973
4	3926	124.7	0.973
4	3927	124.8	0.973
4	3928	124.9	0.973
4	3940	125	0.973
4	3941	125.1	0.973
4	3942	125.2	0.973
4	3943	125.3	0.973
4	3944	125.4	0.973
4	3945	125.5	0.973
4	3946	125.6	0.973
4	3958	125.7	0.973
4	3959	125.8	0.973
4	3960	125.9	0.973
4	3972	126	0.973
4	3973	126.1	0.973
4	3974	126.2	0.973
4	3975	126.3	0.973
4	3976	126.4	0.973
4	3977	126.5	0.973
4	3978	126.6	0.973
4	3990	126.7	0.973
4	3991	126.8	0.973
4	3992	126.9	0.973
4	4004	127	0.973
4	4006	127.1	1.2081235570763
4	4007	127.2	1.3171830950607
4	4008	127.3	1.3727580230873
4	4009	127.4	1.4890818440604
4	4010	127.5	1.5865551376329
4	4011	127.6	1.6261048625654
4	4023	127.7	1.77525706502
4	4024	127.8	1.8712952906248
4	4025	127.9	1.7160765985833
4	4037	128	2.0057307261765
4	4038	128.1	1.7838837209622
4	4039	128.2	2.1395229312069
4	4040	128.3	1.880120164522
4	4041	128.4	2.2341926471425
4	4042	128.5	2.1723861184921
4	4043	128.6	2.542897144177
4	4055	128.7	2.0665131559922
4	4056	128.8	2.3236344210993
4	4057	128.9	2.6877515415261
4	4069	129	2.8068950822629
4	4070	129.1	2.6652827661131
4	4071	129.2	2.5758825021986
4	4072	129.3	2.3975729874431
4	4073	129.4	2.6060943999643
4	4074	129.5	3.2632110171691
4	4075	129.6	3.3079370966118
4	4087	129.7	2.6885260221501
4	4088	129.8	2.7061888741194
4	4089	129.9	3.1038518880346
4	4101	130	3.280881503459
4	4102	130.1	2.9699174153692
4	4103	130.2	2.9621555476641
4	4104	130.3	3.5158053673462
4	4105	130.4	2.8118795891959
4	4106	130.5	3.7522388451216
4	4107	130.6	3.448184247942
4	4119	130.7	3.5376694954041
4	4120	130.8	3.42210438575
4	4121	130.9	3.7116709727865
4	4133	131	4.3919397981133
4	4134	131.1	3.9273392380847
4	4135	131.2	3.8056055052309
4	4136	131.3	3.5118213662379
4	4137	131.4	3.7358732199588
4	4138	131.5	3.5964632142051
4	4139	131.6	3.3638970302685
4	4151	131.7	3.8122650163944
4	4152	131.8	4.5744815683394
4	4153	131.9	4.233617520489
4	4165	132	4.3542959167539
4	4166	132.1	3.6004999927607
4	4167	132.2	3.7367918330283
4	4168	132.3	4.902635614879
4	4169	132.4	5.036791322596
4	4170	132.5	4.3496778136186
4	4171	132.6	3.8021634653801
4	4183	132.7	4.0881085637589
4	4184	132.8	4.7096512411759
4	4185	132.9	4.2529940625872
4	4197	133	5.3525546632174
4	4198	133.1	5.9165171239191
4	4199	133.2	5.9865591450903
4	4200	133.3	4.1660102614063
4	4201	133.4	6.1080219749314
4	4202	133.5	5.4534092754709
4	4203	133.6	4.8777495341403
4	4215	133.7	5.0807514144228
4	4216	133.8	5.7205174225389
4	4217	133.9	5.867767448149
4	4229	134	4.8150008510416
4	4230	134.1	4.3597138457722
4	4231	134.2	4.8645798328755
4	4232	134.3	6.30757525629
4	4233	134.4	6.5685588804302
4	4234	134.5	5.9868837294947
4	4235	134.6	5.5569482028129
4	4247	134.7	7.0582980590306
4	4248	134.8	5.0178655252497
4	4249	134.9	5.6117628486857
4	4261	135	6.6391939781617
4	4262	135.1	5.4658042724551
4	4263	135.2	7.8070999386497
4	4264	135.3	7.5309871579908
4	4265	135.4	7.392536056844
4	4266	135.5	7.1855100124463
4	4267	135.6	7.091419422496
4	4279	135.7	5.2264120032294
4	4280	135.8	7.5081380024185
4	4281	135.9	5.8795853572827
4	4293	136	7.5083078804856
4	4294	136.1	5.9326439328897
4	4295	136.2	8.2271326371148
4	4296	136.3	8.5137396387237
4	4297	136.4	6.3281244338641
4	4298	136.5	5.5653619287195
4	4299	136.6	7.348493989097
4	4311	136.7	6.6021287393434
4	4312	136.8	7.2120158692996
4	4313	136.9	6.3033622759368
4	4325	137	9.2994479011698
4	4326	137.1	7.8302717074551
4	4327	137.2	6.2228562612965
4	4328	137.3	7.1813161469299
4	4329	137.4	8.6440545387489
4	4330	137.5	6.2228381512318
4	4331	137.6	8.8324456076114
4	4343	137.7	9.4494506655566
4	4344	137.8	6.481182239329
4	4345	137.9	9.7619522932265
4	4357	138	10.243088689676
4	4358	138.1	8.9878748877509
4	4359	138.2	8.5611218022472
4	4360	138.3	6.9389259836128
4	4361	138.4	8.7433459539382
4	4362	138.5	8.9832059554649
4	4363	138.6	7.3598475541313
4	4375	138.7	10.662889206317
4	4376	138.8	9.4170780388843
4	4377	138.9	9.5287684657238
4	4389	139	7.7121772206855
4	4390	139.1	10.429746533339
4	4391	139.2	8.6198049884962
4	4392	139.3	9.1866609375257
4	4393	139.4	8.8879789446346
4	4394	139.5	8.1569859434308
4	4395	139.6	10.683487146118
4	4407	139.7	7.4078564523505
4	4408	139.8	10.628860800388
4	4409	139.9	8.0355254111316
4	4421	140	11.776787807566
4	4422	140.1	10.308085968274
4	4423	140.2	11.649813135673
4	4424	140.3	12.522998981841
4	4425	140.4	11.812244651937
4	4426	140.5	9.8809856359905
4	4427	140.6	9.5948741363815
4	4439	140.7	8.3975884537621
4	4440	140.8	9.005327344634
4	4441	140.9	12.20832025117
4	4453	141	8.9306917091169
4	4454	141.1	8.4650276278989
4	4455	141.2	9.6186464286957
4	4456	141.3	10.592494299539
4	4457	141.4	10.094144418464
4	4458	141.5	10.603615825101
4	4459	141.6	10.974825046675
4	4471	141.7	10.210334773535
4	4472	141.8	13.613052714135
4	4473	141.9	12.787812914515
4	4485	142	9.5529313526773
4	4486	142.1	12.087261267489
4	4487	142.2	12.803700414333
4	4488	142.3	12.220442070986
4	4489	142.4	11.259464699051
4	4490	142.5	12.949836599797
4	4491	142.6	12.114713098511
4	4503	142.7	12.149519456047
4	4504	142.8	14.268424132828
4	4505	142.9	10.630120335458
4	4517	143	13.819550019946
4	4518	143.1	10.49352301534
4	4519	143.2	10.788882759512
4	4520	143.3	13.136898417222
4	4521	143.4	13.179364769415
4	4522	143.5	11.746770198004
4	4523	143.6	9.8705115691553
4	4535	143.7	12.726158166684
4	4536	143.8	15.205158921414
4	4537	143.9	14.630296133714
4	4549	144	15.35832131952
4	4550	144.1	12.2361445838
4	4551	144.2	15.130764687023
4	4552	144.3	15.849348877081
4	4553	144.4	13.77367419113
4	4554	144.5	13.663351677432
4	4555	144.6	12.402764023273
4	4567	144.7	11.364804879313
4	4568	144.8	15.936528438445
4	4569	144.9	16.521308341697
4	4581	145	12.421094505382
4	4582	145.1	16.688506399631
4	4583	145.2	16.730080249792
4	4584	145.3	17.363563346256
4	4585	145.4	14.520292812823
4	4586	145.5	16.379206265656
4	4587	145.6	15.738278804259
4	4599	145.7	14.020396990569
4	4600	145.8	14.062992430632
4	4601	145.9	13.132273039569
4	4613	146	13.990828986517
4	4614	146.1	12.571309304052
4	4615	146.2	16.736451560495
4	4616	146.3	15.648132156889
4	4617	146.4	15.149752566092
4	4618	146.5	17.626755326868
4	4619	146.6	12.622256344705
4	4631	146.7	19.245890004446
4	4632	146.8	14.59255406826
4	4633	146.9	5.9189960100452
4	4645	147	1.7375507679597
4	4646	147.1	4.7732665527108
4	4647	147.2	3.9258267059525
4	4648	147.3	7.5311698335638
4	4649	147.4	6.5860638095022
4	4650	147.5	0.712900519709
4	4651	147.6	5.2153512736545
4	4663	147.7	9.6320857231509
4	4664	147.8	2.6267900794512
4	4665	147.9	3.7319995105248
4	4677	148	7.1873962495465
4	4678	148.1	1.9072044668864
4	4679	148.2	8.7776384892845
4	4680	148.3	4.6971915813317
4	4681	148.4	4.5814717108646
4	4682	148.5	5.3811635536337
4	4683	148.6	4.2067843697359
4	4695	148.7	5.1477875669552
4	4696	148.8	4.7457228804332
4	4697	148.9	6.568774955443
4	4709	149	4.5926676687569
4	4710	149.1	2.878175372947
4	4711	149.2	3.147269978618
4	4712	149.3	8.6213664250527
4	4713	149.4	1.8960730596531
4	4714	149.5	6.8695808415857
4	4715	149.6	5.9201018146454
4	4727	149.7	2.5960817406888
4	4728	149.8	8.0490545322945
4	4729	149.9	2.0953605589225
4	4741	150	6.763259782298
4	4742	150.1	4.8846148972002
4	4743	150.2	8.805348655169
4	4744	150.3	-0.41870007371994
4	4745	150.4	10.274306720576
4	4746	150.5	4.9407369437962
4	4747	150.6	0.96209550363223
4	4759	150.7	4.0117167126759
4	4760	150.8	5.1604743359861
4	4761	150.9	4.4969572413613
4	4773	151	6.2782341163143
4	4774	151.1	9.1542386997506
4	4775	151.2	4.9080214129379
4	4776	151.3	0.0083110555180026
4	4777	151.4	10.454679197156
4	4778	151.5	4.1106076015518
4	4779	151.6	3.294378449785
4	4791	151.7	8.3919816176001
4	4792	151.8	0.18162832817752
4	4793	151.9	3.1595605205974
4	4805	152	7.9333448244269
4	4806	152.1	6.4432376492357
4	4807	152.2	3.3509463580771
4	4808	152.3	8.4801499166167
4	4809	152.4	4.3260237558311
4	4810	152.5	4.9816990177309
4	4811	152.6	1.3927849190081
4	4823	152.7	7.6732579367299
4	4824	152.8	5.8295712327899
4	4825	152.9	3.9855516178068
4	4837	153	5.5931007025043
4	4838	153.1	6.3102764613705
4	4839	153.2	5.0202612565953
4	4840	153.3	-0.5761183229089
4	4841	153.4	11.36043946253
4	4842	153.5	1.2975683897475
4	4843	153.6	3.958468982368
4	4855	153.7	3.3361836399613
4	4856	153.8	8.9493249285885
4	4857	153.9	1.4205729882053
4	4869	154	10.120511116359
4	4870	154.1	6.2020061714827
4	4871	154.2	2.1806307397632
4	4872	154.3	6.828108908645
4	4873	154.4	5.9205957211417
4	4874	154.5	3.6759146216704
4	4875	154.6	1.8377850180507
4	4887	154.7	9.1871809305469
4	4888	154.8	1.3101588231906
4	4889	154.9	8.8379340698252
4	4901	155	2.084451940081
4	4902	155.1	7.8383032014476
4	4903	155.2	0.76738310128718
4	4904	155.3	9.5595244978775
4	4905	155.4	5.6652575138009
4	4906	155.5	1.8303065394989
4	4907	155.6	3.9504026291471
4	4919	155.7	2.7327991434865
4	4920	155.8	5.2004352173357
4	4921	155.9	6.279480542694
4	4933	156	4.3309268638442
4	4934	156.1	5.3216217405706
4	4935	156.2	4.8039664964188
4	4936	156.3	7.7506715909532
4	4937	156.4	3.8817824587918
4	4938	156.5	7.9985693845709
4	4939	156.6	3.1006390990004
4	4951	156.7	3.9450154481081
4	4952	156.8	6.865074364959
4	4953	156.9	3.9114269101039
4	4965	157	3.6948430085008
4	4966	157.1	3.0664039883956
4	4967	157.2	9.6348491649884
4	4968	157.3	4.787787622845
4	4969	157.4	3.3522917853225
4	4970	157.5	3.1203350840184
4	4971	157.6	7.1616338331437
4	4983	157.7	2.3893346022683
4	4984	157.8	6.9567823543138
4	4985	157.9	9.9416714359787
4	4997	158	5.0878143013968
4	4998	158.1	5.0771594284842
4	4999	158.2	1.4026506371531
4	5000	158.3	7.0036131185122
4	5001	158.4	0.38530427605397
4	5002	158.5	4.5547408805224
4	5003	158.6	6.3566079196373
4	5015	158.7	7.6535981577515
4	5016	158.8	4.9780991127552
4	5017	158.9	7.6932658775731
4	5029	159	0.7359887476505
4	5030	159.1	4.9064803091039
4	5031	159.2	8.6070421227269
4	5032	159.3	1.2709034543566
4	5033	159.4	7.1081686350625
4	5034	159.5	6.6328108482451
4	5035	159.6	5.7409591055905
4	5047	159.7	1.7814074310205
4	5048	159.8	2.2173422606147
4	5049	159.9	9.2089919017579
4	5061	160	6.4199488986692
4	5062	160.1	1.36574124243
4	5063	160.2	7.0994959627355
4	5064	160.3	0.60944008450794
4	5065	160.4	10.441578989348
4	5066	160.5	2.3965266056336
4	5067	160.6	2.3437758386816
4	5079	160.7	9.4960970462082
4	5080	160.8	7.5741617290736
4	5081	160.9	4.3956440462684
4	5093	161	5.7417036281019
4	5094	161.1	2.5078086287401
4	5095	161.2	7.2174060895209
4	5096	161.3	5.4660806438583
4	5097	161.4	0.973
4	5098	161.5	11.293850943392
4	5099	161.6	4.7577981890135
4	5111	161.7	3.6056052338853
4	5112	161.8	5.4243516333052
4	5113	161.9	2.1392023233839
4	5125	162	7.1021906597094
4	5126	162.1	0.67166446152372
4	5127	162.2	8.7515335248162
4	5128	162.3	2.8255230661534
4	5129	162.4	9.9182812297189
4	5130	162.5	1.650034150912
4	5131	162.6	3.0657890759899
4	5143	162.7	6.105262012188
4	5144	162.8	7.8122829896139
4	5145	162.9	2.6330950025962
4	5157	163	4.6473557823327
4	5158	163.1	4.2460077890683
4	5159	163.2	5.7482155694802
4	5160	163.3	9.2526472130485
4	5161	163.4	4.8063691457589
4	5162	163.5	2.2016033907036
4	5163	163.6	2.519150090025
4	5175	163.7	4.5527867399531
4	5176	163.8	6.6754573568697
4	5177	163.9	4.8898054885672
4	5189	164	3.7669502421354
4	5190	164.1	10.078444455223
4	5191	164.2	0.18671238826033
4	5192	164.3	11.04269858941
4	5193	164.4	2.436173468343
4	5194	164.5	6.9751444317969
4	5195	164.6	3.5234453831352
4	5207	164.7	5.3773608599843
4	5208	164.8	7.2154344555179
4	5209	164.9	-0.42617483692904
4	5221	165	8.818665927477
4	5222	165.1	3.8279311249575
4	5223	165.2	2.4370794586023
4	5224	165.3	9.1218650134013
4	5225	165.4	3.3010466733323
4	5226	165.5	8.3004109328959
4	5227	165.6	2.7300212639508
4	5239	165.7	5.269046141369
4	5240	165.8	6.287436629381
4	5241	165.9	4.459126099466
4	5253	166	1.0738131755574
4	5254	166.1	10.108621065297
4	5255	166.2	4.2513617997923
4	5256	166.3	3.6309831351115
4	5257	166.4	2.5820986823262
4	5258	166.5	5.8495376127239
4	5259	166.6	6.1922471584858
4	5271	166.7	6.4155325424835
4	5272	166.8	2.5084257851665
4	5273	166.9	6.7361791891423
4	5285	167	4.0398099342884
4	5286	167.1	3.3803258477444
4	5287	167.2	6.1623389107067
4	5288	167.3	9.0387085864935
4	5289	167.4	0.95819051557316
4	5290	167.5	7.5569694187113
4	5291	167.6	4.4914829652768
4	5303	167.7	5.8680503949509
4	5304	167.8	2.7300560949771
4	5305	167.9	1.9886662050143
4	5317	168	8.7019047079011
4	5318	168.1	7.8687511482768
4	5319	168.2	3.7716556123919
4	5320	168.3	4.4138338664982
4	5321	168.4	4.9047158369115
4	5322	168.5	2.3013338597303
4	5323	168.6	6.671301333183
4	5335	168.7	6.6006583313218
4	5336	168.8	6.8225088969769
4	5337	168.9	-0.95524877109706
4	5349	169	8.8764667069468
4	5350	169.1	3.2785152373175
4	5351	169.2	6.0230430473613
4	5352	169.3	6.4193827290448
4	5353	169.4	3.7971680105154
4	5354	169.5	3.0750586061835
4	5355	169.6	4.4505107746806
4	5367	169.7	4.5480927437672
4	5368	169.8	9.7710008777917
4	5369	169.9	0.74954100804373
4	5381	170	6.0327340067441
4	5382	170.1	6.9033141963942
4	5383	170.2	7.2306902036313
4	5384	170.3	4.1589301848964
4	5385	170.4	3.1333272717229
4	5386	170.5	6.3446079407484
4	5387	170.6	6.4298405633404
4	5399	170.7	4.8277667294994
4	5400	170.8	2.3539881608344
4	5401	170.9	3.4737902535526
4	5413	171	6.4907131933734
4	5414	171.1	2.4878486581834
4	5415	171.2	8.2722561635809
4	5416	171.3	3.1247373008904
4	5417	171.4	4.91850963126
4	5418	171.5	4.7108221640843
4	5419	171.6	7.8063755404289
4	5431	171.7	2.204145161871
4	5432	171.8	3.2679548912146
4	5433	171.9	8.6494909818026
4	5445	172	3.616367211972
4	5446	172.1	4.0780888102008
4	5447	172.2	9.5040603595432
4	5448	172.3	2.4961584687865
4	5449	172.4	4.8130358518202
4	5450	172.5	5.2974231800339
4	5451	172.6	2.0797960483484
4	5463	172.7	5.1543784536545
4	5464	172.8	8.6010274382263
4	5465	172.9	5.2837190945231
4	5477	173	2.1397271487714
4	5478	173.1	4.1384662485811
4	5479	173.2	6.5150980872632
4	5480	173.3	4.4662811505561
4	5481	173.4	6.1526013588597
4	5482	173.5	7.6579225717947
4	5483	173.6	3.4387978717645
4	5495	173.7	2.4360383097317
4	5496	173.8	11.20723674549
4	5497	173.9	3.7913206243753
4	5509	174	0.94195785300796
4	5510	174.1	8.2729307719459
4	5511	174.2	6.4330580289715
4	5512	174.3	-1.15954972115
4	5513	174.4	10.196527378142
4	5514	174.5	1.2584947079752
4	5515	174.6	7.7697990182785
4	5527	174.7	2.2696746762232
4	5528	174.8	7.5412292189522
4	5529	174.9	3.4862273780637
4	5541	175	8.70556509475
4	5542	175.1	0.83814596189761
4	5543	175.2	5.4870500460836
4	5544	175.3	8.5133166957379
4	5545	175.4	4.3731352080437
4	5546	175.5	4.2020395737722
4	5547	175.6	4.2495773318112
4	5559	175.7	3.018006320017
4	5560	175.8	3.5748641600678
4	5561	175.9	11.98123626339
4	5573	176	-0.59025099410343
4	5574	176.1	5.5703043411188
4	5575	176.2	4.1814848153903
4	5576	176.3	8.9050038590801
4	5577	176.4	3.4731922252726
4	5578	176.5	3.8255330523853
4	5579	176.6	8.663873860537
4	5591	176.7	-0.58661440306981
4	5592	176.8	4.8673135617978
4	5593	176.9	12.089718763397
4	5605	177	1.5880936225833
4	5606	177.1	4.4031761233523
4	5607	177.2	3.5447568253589
4	5608	177.3	9.8514182268033
4	5609	177.4	-0.63343629732981
4	5610	177.5	9.6324394533499
4	5611	177.6	3.391575113223
4	5623	177.7	7.5971972890162
4	5624	177.8	0.73867535736755
4	5625	177.9	3.3656409247582
4	5637	178	11.358948605627
4	5638	178.1	4.5576982474544
4	5639	178.2	5.6578572465112
4	5640	178.3	3.4789220113019
4	5641	178.4	0.38330436375813
4	5642	178.5	9.5005378698312
4	5643	178.6	1.3629868582909
4	5655	178.7	8.2255275214566
4	5656	178.8	4.8809734851889
4	5657	178.9	4.6900779098244
4	5669	179	7.7444560274523
4	5670	179.1	0.36209929265903
4	5671	179.2	8.1385105144029
4	5672	179.3	7.0070424800932
4	5673	179.4	-1.312549626263
4	5674	179.5	5.9642896661524
4	5675	179.6	8.6734412737065
4	5687	179.7	4.4748353258884
4	5688	179.8	7.1794088568247
4	5689	179.9	4.4053614251216
4	5701	180	5.6917298214651
4	5702	180.1	0.19312305900515
4	5703	180.2	4.1716826688362
4	5704	180.3	7.0264445339756
4	5705	180.4	8.1312385099238
4	5706	180.5	3.4906151580622
4	5707	180.6	5.9773068706049
4	5719	180.7	4.7170062306054
4	5720	180.8	1.5948025684678
4	5721	180.9	8.6949499085868
4	5733	181	0.94754037973749
4	5734	181.1	8.7476402303091
4	5735	181.2	0.84066801823451
4	5736	181.3	10.326649048596
4	5737	181.4	4.3452764457925
4	5738	181.5	5.1080221984901
4	5739	181.6	1.9410273664011
4	5751	181.7	3.1075841987374
4	5752	181.8	4.9011569167965
4	5753	181.9	10.599778806053
4	5765	182	3.6246946030897
4	5766	182.1	6.1631571856175
4	5767	182.2	3.2253461660675
4	5768	182.3	2.0451902966649
4	5769	182.4	8.9691476676732
4	5770	182.5	2.1527797133432
4	5771	182.6	5.4122374489877
4	5783	182.7	3.9296189656681
4	5784	182.8	5.1391568505073
4	5785	182.9	7.6067788463173
4	5797	183	6.5177635313419
4	5798	183.1	6.4786227104233
4	5799	183.2	-0.054125786249323
4	5800	183.3	6.0774187328166
4	5801	183.4	3.6471603387372
4	5802	183.5	10.737934881983
4	5803	183.6	0.214923826129
4	5815	183.7	9.7587550788781
4	5816	183.8	-0.24895516396046
4	5817	183.9	7.6218060549207
4	5829	184	5.0768498601222
4	5830	184.1	6.0973020386601
4	5831	184.2	2.52125135553
4	5832	184.3	3.0827760921791
4	5833	184.4	10.255047457324
4	5834	184.5	-0.43573861923371
4	5835	184.6	5.019058774544
4	5847	184.7	5.4740096495864
4	5848	184.8	6.5900401851086
4	5849	184.9	7.690850159105
4	5861	185	2.9638952029379
4	5862	185.1	8.4676053857339
4	5863	185.2	5.3656926658733
4	5864	185.3	0.69680603482121
4	5865	185.4	5.7850260304434
4	5866	185.5	8.8658645012743
4	5867	185.6	3.7133638550153
4	5879	185.7	-0.53388142477735
4	5880	185.8	10.382005360582
4	5881	185.9	6.7460255723164
4	5893	186	0.973
4	5894	186.1	9.0626667391619
4	5895	186.2	1.6469788231848
4	5896	186.3	10.4150753308
4	5897	186.4	4.5615771109777
4	5898	186.5	-0.40951051227661
4	5899	186.6	7.3499838240386
4	5911	186.7	5.7174683250165
4	5912	186.8	2.1131597802284
4	5913	186.9	9.1110155820125
4	5925	187	4.7214029533016
4	5926	187.1	4.4492155146997
4	5927	187.2	4.8407466643911
4	5928	187.3	7.5645894100003
4	5929	187.4	3.9016805282332
4	5930	187.5	1.5382282044134
4	5931	187.6	5.3231737812602
4	5943	187.7	4.6022487905829
4	5944	187.8	4.1940892439952
4	5945	187.9	10.659543808584
4	5957	188	2.099777532365
4	5958	188.1	3.7419310079625
4	5959	188.2	8.4897181487366
4	5960	188.3	3.2583835567956
4	5961	188.4	1.5112793141563
4	5962	188.5	8.7385172449019
4	5963	188.6	4.7622436890695
4	5975	188.7	2.4685608900395
4	5976	188.8	4.7671581187028
4	5977	188.9	4.4248640384532
4	5989	189	10.219864720103
4	5990	189.1	5.8346477466814
4	5991	189.2	4.914168856909
4	5992	189.3	0.067623483615583
4	5993	189.4	5.6752294631772
4	5994	189.5	4.0473432640894
4	5995	189.6	5.9676615626122
4	6007	189.7	5.495148662068
4	6008	189.8	7.1882296612512
4	6009	189.9	2.8253567851085
4	6021	190	7.0829671817164
4	6022	190.1	4.9257704156894
4	6023	190.2	7.5183164760117
4	6024	190.3	0.73527476902515
4	6025	190.4	4.1526810437659
4	6026	190.5	4.4627801129139
4	6027	190.6	6.7042045960795
4	6039	190.7	4.6369083188417
4	6040	190.8	4.8061181666506
4	6041	190.9	9.2066186820894
4	6053	191	6.003952416074
4	6054	191.1	0.093960007536599
4	6055	191.2	3.9072308199114
4	6056	191.3	5.8656111159955
4	6057	191.4	6.5855896318707
4	6058	191.5	4.2781034622202
4	6059	191.6	8.7630578911272
4	6071	191.7	3.4449842756699
4	6072	191.8	3.7156054150789
4	6073	191.9	7.4851296703167
4	6085	192	2.8053487028389
4	6086	192.1	6.0268657737433
4	6087	192.2	4.428808687304
4	6088	192.3	2.8868515903503
4	6089	192.4	4.4507440137667
4	6090	192.5	7.7917767340659
4	6091	192.6	6.4857855338294
4	6103	192.7	5.5205217799939
4	6104	192.8	1.757608732122
4	6105	192.9	6.2967024835474
4	6117	193	7.0663343071556
4	6118	193.1	6.2987834353162
4	6119	193.2	4.5038621190965
4	6120	193.3	2.7340933293963
4	6121	193.4	7.6066064362746
4	6122	193.5	4.2325532266439
4	6123	193.6	1.6663551223092
4	6135	193.7	8.5844521733604
4	6136	193.8	2.7219551492598
4	6137	193.9	1.9119534911172
4	6149	194	9.960662800035
4	6150	194.1	5.2447555143985
4	6151	194.2	4.597028035716
4	6152	194.3	0.51214493961145
4	6153	194.4	7.1858633761244
4	6154	194.5	3.3543490253273
4	6155	194.6	5.3657091594476
4	6167	194.7	9.6563690797522
4	6168	194.8	-0.74102103734558
4	6169	194.9	5.1423244214745
4	6181	195	10.591254739857
4	6182	195.1	3.4378468394784
4	6183	195.2	5.6286160741481
4	6184	195.3	2.7357569388552
4	6185	195.4	4.036974582084
4	6186	195.5	6.6332366964952
4	6187	195.6	3.3816824610053
4	6199	195.7	5.9198426342627
4	6200	195.8	2.9656911538117
4	6201	195.9	9.1505303741901
4	6213	196	3.5880819592405
4	6214	196.1	4.9379254387574
4	6215	196.2	7.1325537107546
4	6216	196.3	4.0651256800467
4	6217	196.4	7.0380510477835
4	6218	196.5	-0.27824390599723
4	6219	196.6	9.4989594847388
4	6231	196.7	0.1051779592615
4	6232	196.8	7.886225620617
4	6233	196.9	2.4837991025764
4	6243	197	5.8654013337035
4	6244	197.1	9.0744865022938
4	6245	197.2	0.51837415254833
4	6246	197.3	10.711950803754
4	6247	197.4	4.2178632443157
4	6248	197.5	3.9707788598055
4	6249	197.6	3.1315422516135
4	6259	197.7	5.3208529490201
4	6260	197.8	3.1569061995465
4	6261	197.9	4.8232072733335
4	6271	198	6.8953029712715
4	6272	198.1	8.6435206112458
4	6273	198.2	0.973
4	6274	198.3	11.618357070759
4	6275	198.4	3.5890509642812
4	6276	198.5	3.0696008511991
4	6277	198.6	5.9357197359436
4	6287	198.7	7.8371273644477
4	6288	198.8	0.91267314383047
4	6289	198.9	2.5283127401698
4	6299	199	5.6950533242083
4	6300	199.1	7.2333118384799
4	6301	199.2	3.3440462611505
4	6302	199.3	4.3473110427328
4	6303	199.4	4.6416473714188
4	6304	199.5	6.6114679976279
4	6305	199.6	6.4669071050293
4	6315	199.7	4.9299135330716
4	6316	199.8	7.6069043186234
4	6317	199.9	5.7871426253847
4	6327	200	-0.3413859839838
4	6328	200.1	9.7194962697598
4	6329	200.2	2.9695488729757
4	6330	200.3	1.8424480962029
4	6331	200.4	10.633641651356
4	6332	200.5	4.6424813929624
4	6333	200.6	3.3266132215031
4	6343	200.7	4.4184435848837
4	6344	200.8	4.0575209171264
4	6345	200.9	6.455754729441
4	6355	201	1.3152994368148
4	6356	201.1	5.2380547186362
4	6357	201.2	7.7749537802573
4	6358	201.3	4.2380754976636
4	6359	201.4	5.2045730188094
4	6360	201.5	4.6172378909615
4	6361	201.6	8.5733259045501
4	6371	201.7	3.4125948617645
4	6372	201.8	4.1404412026998
4	6373	201.9	8.3742679415965
4	6383	202	-0.59321794052312
4	6384	202.1	5.2226857439421
4	6385	202.2	9.9017932149006
4	6386	202.3	4.4204524355362
4	6387	202.4	2.1945706966107
4	6388	202.5	7.6688576934502
4	6389	202.6	7.1951098308616
4	6399	202.7	2.4031929390556
4	6400	202.8	3.7969029341151
4	6401	202.9	3.4636274269169
4	6411	203	9.7551819895555
4	6412	203.1	0.38172050133256
4	6413	203.2	7.7072073621901
4	6414	203.3	5.1631133471846
4	6415	203.4	2.149712605327
4	6416	203.5	10.591146392611
4	6417	203.6	3.953875140018
4	6427	203.7	2.9680637791846
4	6428	203.8	3.4394724006501
4	6429	203.9	7.8151664451773
4	6439	204	1.4204226830029
4	6440	204.1	5.1773004237183
4	6441	204.2	3.9696440587032
4	6442	204.3	9.2880520407306
4	6443	204.4	0.63858022193537
4	6444	204.5	7.7901873735135
4	6445	204.6	8.4657552233318
4	6455	204.7	-0.97189596536541
4	6456	204.8	8.7765108205059
4	6457	204.9	6.2778818669692
4	6467	205	4.995503636904
4	6468	205.1	4.5342999234255
4	6469	205.2	3.2149214669167
4	6470	205.3	8.6200206277429
4	6471	205.4	3.3361082550889
4	6472	205.5	5.7026134345705
4	6473	205.6	-0.55914634453989
4	6483	205.7	5.4970215844919
4	6484	205.8	8.7658338051616
4	6485	205.9	1.0162826289005
4	6495	206	6.6844364643442
4	6496	206.1	8.0707891837469
4	6497	206.2	5.9004165284367
4	6498	206.3	4.5133204732747
4	6499	206.4	-0.20796934811782
4	6500	206.5	10.90102334443
4	6501	206.6	2.6577368269146
4	6511	206.7	3.6294199675103
4	6512	206.8	5.4781933329674
4	6513	206.9	3.2894126254599
4	6523	207	8.6552638420055
4	6524	207.1	3.1888437920145
4	6525	207.2	6.8754351764603
4	6526	207.3	3.3247384745585
4	6527	207.4	4.7917329112524
4	6528	207.5	8.0149169808332
4	6529	207.6	4.180118905341
4	6539	207.7	2.4415280225725
4	6540	207.8	4.0516452746021
4	6541	207.9	4.1043626743592
4	6551	208	8.5424103977672
4	6552	208.1	5.4686414213015
4	6553	208.2	2.382605909963
4	6554	208.3	5.1904414339967
4	6555	208.4	3.9855220632289
4	6556	208.5	8.9899539228752
4	6557	208.6	3.8987356767635
4	6567	208.7	3.4561622680095
4	6568	208.8	6.9795923072854
4	6569	208.9	5.7326563241186
4	6579	209	1.8229544998085
4	6580	209.1	9.5868792095817
4	6581	209.2	1.0846259277319
4	6582	209.3	8.6182525840028
4	6583	209.4	3.9136277553442
4	6584	209.5	1.5018193994608
4	6585	209.6	7.3468911023192
4	6595	209.7	4.0985143441687
4	6596	209.8	6.4147321119596
4	6597	209.9	6.8949303639153
4	6607	210	1.7499401769575
4	6608	210.1	6.8375379327596
4	6609	210.2	6.3990181221155
4	6610	210.3	5.587540295314
4	6611	210.4	2.4804106559059
4	6612	210.5	2.524263501869
4	6613	210.6	8.5503113896244
4	6623	210.7	0.98716648331139
4	6624	210.8	6.7876704717917
4	6625	210.9	5.4600550030521
4	6635	211	6.7275256098222
4	6636	211.1	4.6027437513213
4	6637	211.2	4.6420076601314
4	6638	211.3	3.4521547787337
4	6639	211.4	8.1878130739539
4	6640	211.5	2.4567710099641
4	6641	211.6	6.4657490041463
4	6651	211.7	6.1058069508488
4	6652	211.8	4.7320563379643
4	6653	211.9	5.5987180199196
4	6663	212	3.9901183525529
4	6664	212.1	3.6119203817728
4	6665	212.2	7.3423567163666
4	6666	212.3	2.1108156477863
4	6667	212.4	3.1682963398904
4	6668	212.5	11.876353144789
4	6669	212.6	1.2075045622376
4	6679	212.7	7.8731673361524
4	6680	212.8	2.3928400059103
4	6681	212.9	8.1867740000126
4	6691	213	-0.59875452450429
4	6692	213.1	11.152441076817
4	6693	213.2	1.1236566264012
4	6694	213.3	3.515438706711
4	6695	213.4	8.0960685911116
4	6696	213.5	4.2230463557162
4	6697	213.6	4.4301227464776
4	6707	213.7	3.3048781463662
4	6708	213.8	5.8260724970377
4	6709	213.9	7.6411167581046
4	6719	214	4.4423464857549
4	6720	214.1	6.3650650490537
4	6721	214.2	2.1712430921309
4	6722	214.3	9.2166091712906
4	6723	214.4	0.72379641614548
4	6724	214.5	7.5486312374588
4	6725	214.6	0.87746477919378
4	6735	214.7	9.7985389850615
4	6736	214.8	4.1098148434404
4	6737	214.9	5.3005332639101
4	6747	215	1.259351062774
4	6748	215.1	5.18790992281
4	6749	215.2	5.0352615362187
4	6750	215.3	6.4460269182419
4	6751	215.4	7.0673579451535
4	6752	215.5	1.8645227210894
4	6753	215.6	5.4281961123294
4	6763	215.7	4.2444366299746
4	6764	215.8	9.4380272934747
4	6765	215.9	6.7510119214322
4	6775	216	0.973
4	6776	216.1	10.684242199373
4	6777	216.2	1.7802737356886
4	6778	216.3	9.1759244199153
4	6779	216.4	0.90454492930987
4	6780	216.5	4.0380795560359
4	6781	216.6	3.8783916617532
4	6791	216.7	10.417353450295
4	6792	216.8	2.4640004068419
4	6793	216.9	3.7291800896155
4	6803	217	9.0318961222677
4	6804	217.1	3.3081993360968
4	6805	217.2	5.679597077225
4	6806	217.3	5.1156165330382
4	6807	217.4	4.1739317940891
4	6808	217.5	5.8735835507368
4	6809	217.6	5.0561146126542
4	6819	217.7	4.8911048636383
4	6820	217.8	6.6338220535624
4	6821	217.9	3.6710294214958
4	6831	218	3.8254491256611
4	6832	218.1	6.3474767196434
4	6833	218.2	3.8876439951609
4	6834	218.3	5.5371370525758
4	6835	218.4	5.8477662192528
4	6836	218.5	4.8390023091743
4	6837	218.6	5.4630343309454
4	6847	218.7	3.5315982555326
4	6848	218.8	2.3317817735077
4	6849	218.9	6.48823926752
4	6859	219	5.6620707278447
4	6860	219.1	8.4811463223544
4	6861	219.2	0.75474111951777
4	6862	219.3	5.8713775280698
4	6863	219.4	7.2734433610712
4	6864	219.5	4.6219759922076
4	6865	219.6	2.7715945607437
4	6875	219.7	4.5876500592879
4	6876	219.8	8.8142972274841
4	6877	219.9	3.1614822866739
4	6887	220	3.4964988745874
4	6888	220.1	2.1683773032939
4	6889	220.2	5.7858055303043
4	6890	220.3	9.6255719360765
4	6891	220.4	0.65225710659889
4	6892	220.5	7.6940780148778
4	6893	220.6	4.4670638993164
4	6903	220.7	5.7659838725759
4	6904	220.8	6.2515150221539
4	6905	220.9	4.6378833699186
4	6915	221	6.1610278248265
4	6916	221.1	3.9145297180532
4	6917	221.2	4.6107743779515
4	6918	221.3	5.1086995523225
4	6919	221.4	1.2773969116068
4	6920	221.5	7.408965401307
4	6921	221.6	6.1866656829447
4	6931	221.7	2.416806694216
4	6932	221.8	5.6924408813265
4	6933	221.9	3.3524787105457
4	6943	222	4.7487972130773
4	6944	222.1	10.823742051597
4	6945	222.2	0.58551513005796
4	6946	222.3	9.4453315813538
4	6947	222.4	3.0080944039775
4	6948	222.5	2.3923847412778
4	6949	222.6	5.5133184118371
4	6959	222.7	5.8849007024107
4	6960	222.8	2.6696345018646
4	6961	222.9	5.4274599064485
4	6971	223	10.305318707002
4	6972	223.1	5.555644850847
4	6973	223.2	3.8591628341936
4	6974	223.3	1.4519203997923
4	6975	223.4	4.6948554887454
4	6976	223.5	4.3053179228324
4	6977	223.6	9.4462412471102
4	6987	223.7	0.32935999484724
4	6988	223.8	9.8487869395967
4	6989	223.9	5.4469878612987
4	6999	224	4.4040544507681
4	7000	224.1	0.22301177665249
4	7001	224.2	7.5403495479968
4	7002	224.3	6.8617501092981
4	7003	224.4	4.657674884718
4	7004	224.5	6.3944412496036
4	7005	224.6	0.64020971295929
4	7015	224.7	7.6754040731056
4	7016	224.8	3.8069420227354
4	7017	224.9	3.9808897940486
4	7027	225	7.6050872010064
4	7028	225.1	5.2385199614369
4	7029	225.2	7.2876757144643
4	7030	225.3	2.3415947454057
4	7031	225.4	7.1596667276273
4	7032	225.5	4.2335889054316
4	7033	225.6	6.90715265596
4	7043	225.7	-0.53917405918101
4	7044	225.8	4.7938584032521
4	7045	225.9	5.4916991635672
4	7055	226	9.6581260548725
4	7056	226.1	1.3039059906439
4	7057	226.2	8.3281879279389
4	7058	226.3	1.2086919453888
4	7059	226.4	10.348434310473
4	7060	226.5	3.5538716373826
4	7061	226.6	5.6709388602337
4	7071	226.7	-0.3320338681902
4	7072	226.8	8.1785760649094
4	7073	226.9	1.1323074365652
4	7083	227	11.134691448707
4	7084	227.1	5.9777648242169
4	7085	227.2	4.3830788621927
4	7086	227.3	5.1410235581166
4	7087	227.4	1.4650290548589
4	7088	227.5	3.4142277787943
4	7089	227.6	7.4248625823787
4	7099	227.7	6.5138801626911
4	7100	227.8	0.56873771703276
4	7101	227.9	9.382616005768
4	7111	228	2.6500871390374
4	7112	228.1	5.8041766561645
4	7113	228.2	6.791207641623
4	7114	228.3	-0.070299509895031
4	7115	228.4	5.9756692577988
4	7116	228.5	10.964352537306
4	7117	228.6	3.7536589131919
4	7127	228.7	2.7110024794629
4	7128	228.8	5.2803849580292
4	7129	228.9	2.4975544602648
4	7139	229	4.4647184644214
4	7140	229.1	8.2126608632631
4	7141	229.2	2.0187028275378
4	7142	229.3	10.56344227197
4	7143	229.4	-0.80495847701289
4	7144	229.5	10.334711121538
4	7145	229.6	3.9427546232532
4	7155	229.7	4.6347244266334
4	7156	229.8	7.6475001841764
4	7157	229.9	4.1902181422395
4	7167	230	0.35726932405774
4	7168	230.1	8.7877416227327
4	7169	230.2	4.7336935488486
4	7170	230.3	6.5327551093708
4	7171	230.4	4.9874546961249
4	7172	230.5	5.6168731656891
4	7173	230.6	5.4638929459264
4	7183	230.7	5.2145021015939
4	7184	230.8	1.657272452402
4	7185	230.9	2.5887209016886
4	7195	231	7.9340336846764
4	7196	231.1	4.7443636999878
4	7197	231.2	6.8793614732726
4	7198	231.3	6.2338742279955
4	7199	231.4	2.3137725426162
4	7200	231.5	4.3465996808336
4	7201	231.6	2.429374715669
4	7211	231.7	7.3191242140304
4	7212	231.8	7.466921409254
4	7213	231.9	5.6915039359618
4	7223	232	2.5501604206695
4	7224	232.1	5.0172090764367
4	7225	232.2	7.531227542056
4	7226	232.3	4.0175821935467
4	7227	232.4	2.4455582813834
4	7228	232.5	8.8553127997868
4	7229	232.6	3.2989749445827
4	7239	232.7	4.5965664456553
4	7240	232.8	6.8881823760313
4	7241	232.9	0.37193609779702
4	7251	233	9.5945885281597
4	7252	233.1	4.3544785164201
4	7253	233.2	2.0704210891374
4	7254	233.3	5.1848229290153
4	7255	233.4	6.5761793863647
4	7256	233.5	4.3748671491241
4	7257	233.6	7.5085916317058
4	7267	233.7	1.1998408254327
4	7268	233.8	7.066091447478
4	7269	233.9	8.1034760033707
4	7279	234	2.7115166258899
4	7280	234.1	4.8339553393764
4	7281	234.2	0.87895385144758
4	7282	234.3	7.0343661026503
4	7283	234.4	7.9776980502838
4	7284	234.5	6.5314090876536
4	7285	234.6	4.7999257866383
4	7295	234.7	4.5693348007446
4	7296	234.8	6.1397412034448
4	7297	234.9	0.50838010501504
4	7307	235	8.6264868249712
4	7308	235.1	0.37933063120112
4	7309	235.2	10.006715152921
4	7310	235.3	-1.3775732370048
4	7311	235.4	6.0875348651856
4	7312	235.5	4.1333112233566
4	7313	235.6	0.973
4	7323	235.7	0.973
4	7324	235.8	1.5450650471068
4	7325	235.9	0.973
4	7335	236	3.2399460496671
4	7336	236.1	0.973
4	7337	236.2	4.2204630223459
4	7338	236.3	0.973
4	7339	236.4	0.973
4	7340	236.5	0.973
4	7341	236.6	2.2295212087521
4	7351	236.7	0.973
4	7352	236.8	0.973
4	7353	236.9	-0.72098533141918
4	7363	237	-0.71615942190278
4	7364	237.1	0.973
4	7365	237.2	1.8798761844485
4	7366	237.3	0.973
4	7367	237.4	2.0755218135331
4	7368	237.5	-0.78892229090809
4	7369	237.6	0.12638747714003
4	7379	237.7	0.973
4	7380	237.8	0.64622719488785
4	7381	237.9	0.973
4	7391	238	2.1407422924276
4	7392	238.1	2.5715547690339
4	7393	238.2	0.973
4	7394	238.3	0.973
4	7395	238.4	-0.48106940022814
4	7396	238.5	0.973
4	7397	238.6	1.7170267274535
4	7407	238.7	0.973
4	7408	238.8	2.0824347667183
4	7409	238.9	1.9192464537834
4	7419	239	0.973
4	7420	239.1	2.7369130384329
4	7421	239.2	0.973
4	7422	239.3	4.9412966556818
4	7423	239.4	11.62748474596
4	7424	239.5	16.1137875385
4	7425	239.6	10.816348452763
4	7435	239.7	14.904075290364
4	7436	239.8	13.66645787691
4	7437	239.9	16.387259560811
4	7447	240	14.614933721218
4	7448	240.1	15.191177397813
4	7449	240.2	11.556958049548
4	7450	240.3	11.998508867638
4	7451	240.4	12.115617099239
4	7452	240.5	13.600810645599
4	7453	240.6	18.157663838155
4	7463	240.7	17.111846062978
4	7464	240.8	13.071573858715
4	7465	240.9	12.489996508789
4	7475	241	18.69359692736
4	7476	241.1	15.711838461799
4	7477	241.2	18.528907993473
4	7478	241.3	12.991531958517
4	7479	241.4	15.373648644923
4	7480	241.5	16.323871767522
4	7481	241.6	2.7555089665584
4	7491	241.7	3.5090073136736
4	7492	241.8	9.5630295371328
4	7493	241.9	2.5846660137255
4	7503	242	8.119126069306
4	7504	242.1	6.7796597152946
4	7505	242.2	-0.30334968353687
4	7506	242.3	9.1970988328911
4	7507	242.4	1.7639500526741
4	7508	242.5	7.3919897579235
4	7509	242.6	1.6259164881631
4	7519	242.7	5.972115161679
4	7520	242.8	7.3626233827532
4	7521	242.9	4.4026237574025
4	7531	243	5.3435241275005
4	7532	243.1	5.9237888844891
4	7533	243.2	1.8427555418092
4	7534	243.3	3.178971647265
4	7535	243.4	6.9362594446504
4	7536	243.5	7.3351622841499
4	7537	243.6	4.8024501696253
4	7547	243.7	5.7661781626302
4	7548	243.8	0.38128349485841
4	7549	243.9	10.404052650213
4	7559	244	0.12143645145609
4	7560	244.1	10.280755223414
4	7561	244.2	5.546488928531
4	7562	244.3	5.0005964277578
4	7563	244.4	-1.2981071072196
4	7564	244.5	9.4044041392237
4	7565	244.6	3.0184736575818
4	7575	244.7	2.8586556475046
4	7576	244.8	6.5807231677353
4	7577	244.9	8.9535939443802
4	7587	245	3.1784941457421
4	7588	245.1	5.4297326726835
4	7589	245.2	7.2961782023068
4	7590	245.3	3.1958036232413
4	7591	245.4	3.8860442350983
4	7592	245.5	2.0839675829529
4	7593	245.6	10.565178376467
4	7603	245.7	0.75520890853302
4	7604	245.8	3.3101045854382
4	7605	245.9	5.5806724680044
4	7615	246	9.1277530478927
4	7616	246.1	3.2179066641369
4	7617	246.2	4.1285051407949
4	7618	246.3	4.4352192537507
4	7619	246.4	6.8164260859535
4	7620	246.5	8.7692349765984
4	7621	246.6	4.3754100281859
4	7631	246.7	3.5870353571991
4	7632	246.8	4.8019029198658
4	7633	246.9	6.5013205780737
4	7643	247	0.86074437512548
4	7644	247.1	9.2770364956561
4	7645	247.2	5.3947286260262
4	7646	247.3	5.1055997403386
4	7647	247.4	2.723697362014
4	7648	247.5	1.6560864651568
4	7649	247.6	10.66763121793
4	7659	247.7	2.959321293863
4	7660	247.8	3.6647932616079
4	7661	247.9	4.2992624191594
4	7671	248	6.648168729701
4	7672	248.1	4.5361141585033
4	7673	248.2	4.2171825221098
4	7674	248.3	2.5625764431703
4	7675	248.4	7.2814809980537
4	7676	248.5	6.8522842501152
4	7677	248.6	3.5239666536427
4	7687	248.7	3.4420245521439
4	7688	248.8	8.0625436844896
4	7689	248.9	5.1270460150242
4	7699	249	2.5013654473001
4	7700	249.1	9.9808048331971
4	7701	249.2	2.0545836227636
4	7702	249.3	1.6013229093348
4	7703	249.4	8.5323603089757
4	7704	249.5	6.702308682711
4	7705	249.6	3.0875921433498
4	7715	249.7	8.7045957907612
4	7716	249.8	0.3827024912847
4	7717	249.9	5.9176390213891
4	7727	250	8.7151058251241
4	7728	250.1	0.95361845962224
4	7729	250.2	8.1846103954915
4	7730	250.3	-0.56678432905266
4	7731	250.4	7.2640129313945
4	7732	250.5	3.2749173534017
4	7733	250.6	7.3174301841113
4	7743	250.7	8.493832199254
4	7744	250.8	4.9543871243542
4	7745	250.9	2.6757790559693
4	7755	251	5.32130070545
4	7756	251.1	5.8290593510816
4	7757	251.2	0.35202795672814
4	7758	251.3	5.1911118467316
4	7759	251.4	5.6213290549216
4	7760	251.5	6.7001064793985
4	7761	251.6	4.8421385247985
4	7771	251.7	4.380224809869
4	7772	251.8	8.4607440534155
4	7773	251.9	4.1890312615572
4	7783	252	3.3334838428424
4	7784	252.1	8.0867199716345
4	7785	252.2	6.1500096728189
4	7786	252.3	0.64297924488394
4	7787	252.4	6.9292856705224
4	7788	252.5	1.7426850932897
4	7789	252.6	5.6360542879883
4	7799	252.7	4.8164511520678
4	7800	252.8	4.1355619203737
4	7801	252.9	11.193919004025
4	7811	253	0.70717728236898
4	7812	253.1	7.6947177781938
4	7813	253.2	6.5562816030687
4	7814	253.3	1.8024070936871
4	7815	253.4	4.3210030579816
4	7816	253.5	3.116273010675
4	7817	253.6	7.276763150527
4	7827	253.7	9.1363831249749
4	7828	253.8	3.395745661815
4	7829	253.9	0.82108484197262
4	7839	254	10.126786167156
4	7840	254.1	0.71110211831862
4	7841	254.2	3.1799711978161
4	7842	254.3	5.3117383518555
4	7843	254.4	10.774137065664
4	7844	254.5	3.4776091602119
4	7845	254.6	6.508883136939
4	7855	254.7	2.1924854136246
4	7856	254.8	3.4091179341291
4	7857	254.9	5.6850056008468
4	7867	255	7.8898790818949
4	7868	255.1	3.1233601038771
4	7869	255.2	3.4509678110114
4	7870	255.3	10.394361506042
4	7871	255.4	0.973
4	7872	255.5	10.751332189428
4	7873	255.6	5.5725185645806
4	7883	255.7	0.063454557417178
4	7884	255.8	7.0883953597243
4	7885	255.9	4.4244447347377
4	7895	256	5.9507625193973
4	7896	256.1	4.3334969989472
4	7897	256.2	8.8646563911835
4	7898	256.3	2.2690580443955
4	7899	256.4	8.065092123449
4	7900	256.5	-0.96764826660128
4	7901	256.6	7.5475244945838
4	7911	256.7	7.0412434248887
4	7912	256.8	4.5778857507207
4	7913	256.9	4.1224191158143
4	7923	257	5.4859530102816
4	7924	257.1	7.1710908788082
4	7925	257.2	-1.3389870933318
4	7926	257.3	7.6368773123885
4	7927	257.4	8.9365159640466
4	7928	257.5	3.3176233388568
4	7929	257.6	2.5343418822098
4	7939	257.7	5.49768222379
4	7940	257.8	3.2590377743607
4	7941	257.9	5.7190238113366
4	7951	258	9.734790930099
4	7952	258.1	2.6482099877587
4	7953	258.2	5.8058478799887
4	7954	258.3	0.34040642525243
4	7955	258.4	9.1610105301557
4	7956	258.5	2.1576165032629
4	7957	258.6	7.4593166593713
4	7967	258.7	7.6645624670442
4	7968	258.8	2.9052944913413
4	7969	258.9	7.3478875944302
4	7979	259	0.973
4	7980	259.1	11.325588154664
4	7981	259.2	0.58472963802808
4	7982	259.3	8.2880939027805
4	7983	259.4	0.61783433798919
4	7984	259.5	9.0794231388548
4	7985	259.6	5.8001060565481
4	7995	259.7	0.46947427663503
4	7996	259.8	7.8982020082133
4	7997	259.9	1.6807073972755
4	8007	260	5.2517896205653
4	8008	260.1	5.7979226283214
4	8009	260.2	8.8173593649137
4	8010	260.3	4.634004081102
4	8011	260.4	3.2410943228295
4	8012	260.5	3.1892313635913
4	8013	260.6	10.816175778369
4	8023	260.7	-0.469396899169
4	8024	260.8	6.5417973215778
4	8025	260.9	2.9650407181434
4	8035	261	10.461756701763
4	8036	261.1	0.39141222829932
4	8037	261.2	4.2566286725353
4	8038	261.3	7.9886794399215
4	8039	261.4	4.5234014768798
4	8040	261.5	8.0568842351658
4	8041	261.6	1.6430435727955
4	8051	261.7	5.5499025183975
4	8052	261.8	3.1787482269351
4	8053	261.9	6.743999235756
4	8063	262	5.5893364847805
4	8064	262.1	5.6326216590494
4	8065	262.2	1.9597387174407
4	8066	262.3	5.3938760596378
4	8067	262.4	8.2082416427293
4	8068	262.5	4.0915151130833
4	8069	262.6	5.641649164129
4	8079	262.7	5.0042678305973
4	8080	262.8	4.8535706218969
4	8081	262.9	5.1115184059354
4	8091	263	7.3198332327167
4	8092	263.1	3.1272827494776
4	8093	263.2	6.5231545005039
4	8094	263.3	5.0255184844976
4	8095	263.4	4.0655745079704
4	8096	263.5	1.6179606561319
4	8097	263.6	4.8543308292004
4	8107	263.7	8.2773398804138
4	8108	263.8	7.4277774187603
4	8109	263.9	1.484480756018
4	8119	264	7.1069603091777
4	8120	264.1	3.6157282002509
4	8121	264.2	4.3962847155708
4	8122	264.3	1.9654341495198
4	8123	264.4	7.7034824712104
4	8124	264.5	2.3186558326092
4	8125	264.6	6.0904605836744
4	8135	264.7	5.9505424417008
4	8136	264.8	8.4102249955454
4	8137	264.9	4.2621308551169
4	8147	265	3.3258285872738
4	8148	265.1	2.9923056690772
4	8149	265.2	9.6826300205917
4	8150	265.3	2.7698116476185
4	8151	265.4	5.9959091219255
4	8152	265.5	1.752063869673
4	8153	265.6	5.8760043138094
4	8163	265.7	5.1311472068027
4	8164	265.8	9.4251330639757
4	8165	265.9	-0.34057670640555
4	8175	266	7.9813861925929
4	8176	266.1	7.9511050831158
4	8177	266.2	4.530101740285
4	8178	266.3	4.2522217674238
4	8179	266.4	3.7714041954651
4	8180	266.5	1.5810898798144
4	8181	266.6	10.471988409199
4	8191	266.7	4.3311997855239
4	8192	266.8	4.9461818080136
4	8193	266.9	2.4843133680818
4	8203	267	7.6017205478716
4	8204	267.1	-0.24349282573282
4	8205	267.2	7.0537010751766
4	8206	267.3	9.0290824540477
4	8207	267.4	4.3756578570916
4	8208	267.5	1.9077648516006
4	8209	267.6	3.5523086214374
4	8219	267.7	6.3799053017311
4	8220	267.8	3.7067909439057
4	8221	267.9	9.7241022645453
4	8231	268	5.0868039948968
4	8232	268.1	4.9681337969706
4	8233	268.2	1.3324876298062
4	8234	268.3	5.6940206395696
4	8235	268.4	8.6962021685806
4	8236	268.5	4.0549112633576
4	8237	268.6	6.0204552926586
4	8247	268.7	-0.7589330416028
4	8248	268.8	7.9723996748984
4	8249	268.9	3.2439250135644
4	8259	269	10.254957215896
4	8260	269.1	3.0960800962127
4	8261	269.2	4.9804330261342
4	8262	269.3	1.7639246696813
4	8263	269.4	7.0842152130517
4	8264	269.5	8.2340150949534
4	8265	269.6	5.247979351976
4	8275	269.7	-1.0420077153698
4	8276	269.8	5.1748858466124
4	8277	269.9	9.5795121004497
4	8287	270	6.2811343617762
4	8288	270.1	3.2821948805785
4	8289	270.2	6.9232029971421
4	8290	270.3	-0.71607093706142
4	8291	270.4	6.6287009842715
4	8292	270.5	3.6381551097369
4	8293	270.6	9.0036320628251
4	8303	270.7	0.27703562652041
4	8304	270.8	6.3105073103297
4	8305	270.9	8.5762898571969
4	8315	271	3.4029209731163
4	8316	271.1	5.6215488880701
4	8317	271.2	3.1258553533078
4	8318	271.3	7.9244678935711
4	8319	271.4	1.0392018503807
4	8320	271.5	8.6989669769512
4	8321	271.6	4.9175043175776
4	8331	271.7	6.2883193522593
4	8332	271.8	1.2878065949853
4	8333	271.9	2.6329049775197
4	8343	272	6.6645499465873
4	8344	272.1	3.7592293497985
4	8345	272.2	8.9239791066653
4	8346	272.3	1.3472335841744
4	8347	272.4	8.6574586582813
4	8348	272.5	1.196169228874
4	8349	272.6	10.502701998794
4	8359	272.7	2.4810169719596
4	8360	272.8	6.860825108049
4	8361	272.9	5.3826067392576
4	8371	273	2.8680440228771
4	8372	273.1	3.651283522695
4	8373	273.2	6.4398465835108
4	8374	273.3	6.1685988136094
4	8375	273.4	7.7296339179018
4	8376	273.5	0.33747932238474
4	8377	273.6	9.4281467473845
4	8387	273.7	1.957396210185
4	8388	273.8	6.224588430378
4	8389	273.9	2.0641284584969
4	8399	274	8.7382586063993
4	8400	274.1	4.9815847247597
4	8401	274.2	1.4045573116605
4	8402	274.3	5.2412575681194
4	8403	274.4	8.5877459136663
4	8404	274.5	1.4675660286215
4	8405	274.6	8.379629304834
4	8415	274.7	2.3225941436713
4	8416	274.8	6.4057902761843
4	8417	274.9	1.3099567465259
4	8427	275	9.7255875679238
4	8428	275.1	0.71937014969547
4	8429	275.2	7.5326809066224
4	8430	275.3	6.8588332636716
4	8431	275.4	3.9041959830669
4	8432	275.5	5.9280223457046
4	8433	275.6	6.1174649731376
4	8443	275.7	-0.63938292204569
4	8444	275.8	5.9595039706389
4	8445	275.9	9.5094320195928
4	8455	276	5.8074231366854
4	8456	276.1	3.5243685310429
4	8457	276.2	2.7557975532507
4	8458	276.3	7.5741112784242
4	8459	276.4	2.2357834759389
4	8460	276.5	7.5330429893688
4	8461	276.6	1.0053290821255
4	8471	276.7	10.714512653042
4	8472	276.8	5.3062110963435
4	8473	276.9	-0.8322708189024
4	8483	277	10.664980571806
4	8484	277.1	2.0581392957417
4	8485	277.2	2.7954392380473
4	8486	277.3	6.4772325042426
4	8487	277.4	2.5154747508686
4	8488	277.5	8.9961535794864
4	8489	277.6	4.7421657901515
4	8499	277.7	5.6081235870856
4	8500	277.8	7.7255554228399
4	8501	277.9	3.8722185409876
4	8511	278	6.1617747493972
4	8512	278.1	3.6490624056032
4	8513	278.2	5.8061114970356
4	8514	278.3	4.7721340018313
4	8515	278.4	1.4499322174697
4	8516	278.5	6.2783991584948
4	8517	278.6	6.034389953781
4	8527	278.7	0.95258206052544
4	8528	278.8	7.0510942754864
4	8529	278.9	6.8257864386642
4	8539	279	5.7931737160131
4	8540	279.1	1.8663619171528
4	8541	279.2	9.7361903239297
4	8542	279.3	4.6536856884848
4	8543	279.4	4.6160719341522
4	8544	279.5	5.2867855793602
4	8545	279.6	5.7265681231554
4	8555	279.7	0.23953087066116
4	8556	279.8	8.271888197106
4	8557	279.9	2.8449261424461
4	8567	280	8.6095117854261
4	8568	280.1	0.40963217142095
4	8569	280.2	4.1372390103705
4	8570	280.3	10.104967148813
4	8571	280.4	1.7286850111816
4	8572	280.5	3.0544616636581
4	8573	280.6	5.494403244251
4	8583	280.7	10.889918013004
4	8584	280.8	-1.037554324657
4	8585	280.9	8.8684463553717
4	8595	281	6.7864193012549
4	8596	281.1	3.7717342757528
4	8597	281.2	3.7405982607368
4	8598	281.3	1.3200595006331
4	8599	281.4	6.0091623637041
4	8600	281.5	9.2370534204362
4	8601	281.6	4.2501247911995
4	8611	281.7	2.7698952290873
4	8612	281.8	6.5864832587842
4	8613	281.9	6.8637670620942
4	8623	282	0.098112377324424
4	8624	282.1	9.9216252994909
4	8625	282.2	5.0527935162076
4	8626	282.3	4.1203718973805
4	8627	282.4	6.7362670993266
4	8628	282.5	2.5198855209868
4	8629	282.6	2.5753977425297
4	8639	282.7	9.3312094816332
4	8640	282.8	4.6682341181327
4	8641	282.9	4.9725334117408
4	8651	283	6.6383570652261
4	8652	283.1	1.9088110512731
4	8653	283.2	1.1003285951556
4	8654	283.3	6.8534023370665
4	8655	283.4	7.6803569844643
4	8656	283.5	3.7790311890328
4	8657	283.6	8.7929279511207
4	8667	283.7	1.8106629794427
4	8668	283.8	4.6268901837682
4	8669	283.9	3.8688756665947
4	8679	284	7.9008542923468
4	8680	284.1	0.66858619360239
4	8681	284.2	10.977358967885
4	8682	284.3	1.5718064198799
4	8683	284.4	8.1619778255201
4	8684	284.5	3.6025681181582
4	8685	284.6	3.6793164663994
4	8695	284.7	2.0368490022842
4	8696	284.8	7.2607212287444
4	8697	284.9	5.5811292563272
4	8707	285	7.1553809605698
4	8708	285.1	5.3037522394246
4	8709	285.2	2.0915020324185
4	8710	285.3	6.4881841573621
4	8711	285.4	5.6066603944276
4	8712	285.5	1.2083819912066
4	8713	285.6	10.223624234718
4	8723	285.7	0.84810162224656
4	8724	285.8	8.8702482520605
4	8725	285.9	6.4106112819406
4	8735	286	4.4783605854251
4	8736	286.1	0.60028375006329
4	8737	286.2	8.0366347233146
4	8738	286.3	7.1900628411982
4	8739	286.4	0.973
4	8740	286.5	5.4668901377757
4	8741	286.6	9.3253023648496
4	8751	286.7	1.0367054506579
4	8752	286.8	4.7260443599228
4	8753	286.9	6.8670793853962
4	8763	287	4.08785697055
4	8764	287.1	4.8466941691668
4	8765	287.2	6.9484123968845
4	8766	287.3	7.2987915950129
4	8767	287.4	4.8416923762585
4	8768	287.5	4.0582174226415
4	8769	287.6	2.6207026298261
4	8779	287.7	3.0420549150447
4	8780	287.8	8.3839666999752
4	8781	287.9	7.5315723427094
4	8791	288	6.1817220674024
4	8792	288.1	0.64914075491725
4	8793	288.2	2.5886690885693
4	8794	288.3	10.629109776949
4	8795	288.4	1.4752019304297
4	8796	288.5	9.5746587332778
4	8797	288.6	2.9857023358853
4	8807	288.7	1.4931880810707
4	8808	288.8	9.6065043642638
4	8809	288.9	4.4094082198851
4	8819	289	1.3372195318031
4	8820	289.1	8.285363563982
4	8821	289.2	2.543541045713
4	8822	289.3	3.5879734875369
4	8823	289.4	7.5711371751206
4	8824	289.5	4.3642132234014
4	8825	289.6	9.1025536007073
4	8835	289.7	5.2832026115053
4	8836	289.8	-1.204750389346
4	8837	289.9	4.6161908854077
4	8847	290	5.9086821142611
4	8848	290.1	10.021785582961
4	8849	290.2	0.38670459766255
4	8850	290.3	8.8752539655216
4	8851	290.4	5.7478465251162
4	8852	290.5	-0.23676488049227
4	8853	290.6	6.611676232305
4	8863	290.7	8.6804907747927
4	8864	290.8	6.2661998322278
4	8865	290.9	2.8578936777787
4	8875	291	3.2873953260983
4	8876	291.1	2.4048402983283
4	8877	291.2	9.7696655376429
4	8878	291.3	0.2417376232817
4	8879	291.4	8.2392905762332
4	8880	291.5	7.1233629072304
4	8881	291.6	1.1491406460679
4	8891	291.7	7.2101784711534
4	8892	291.8	0.96173786340138
4	8893	291.9	9.4406282861722
4	8903	292	2.5866541943304
4	8904	292.1	8.2295528883613
4	8905	292.2	4.5037010977117
4	8906	292.3	1.2905488885208
4	8907	292.4	5.3143059003357
4	8908	292.5	5.8417239450979
4	8909	292.6	3.1482580964741
4	8919	292.7	12.025348443465
4	8920	292.8	1.5930537073629
4	8921	292.9	2.9987910724767
4	8931	293	7.1677640448478
4	8932	293.1	6.8017228448016
4	8933	293.2	4.9224547250515
4	8934	293.3	4.4708408568584
4	8935	293.4	3.461218149535
4	8936	293.5	5.5554647671942
4	8937	293.6	4.0700247369157
4	8947	293.7	7.3623581105778
4	8948	293.8	0.67794296709665
4	8949	293.9	11.223521948268
4	8959	294	1.1157489534433
4	8960	294.1	6.363784066081
4	8961	294.2	6.3161667898134
4	8962	294.3	5.2863171613597
4	8963	294.4	0.48383488915301
4	8964	294.5	7.1939651306826
4	8965	294.6	8.4395751484537
4	8975	294.7	5.4269483561378
4	8976	294.8	2.7340687586015
4	8977	294.9	5.3073348842234
4	8987	295	0.94669567218794
4	8988	295.1	10.281877569897
4	8989	295.2	3.510470731616
4	8990	295.3	3.8579333334912
4	8991	295.4	7.9789404713137
4	8992	295.5	1.2684994936009
4	8993	295.6	9.1474677298972
4	9003	295.7	-0.57616235695236
4	9004	295.8	6.9606707480855
4	9005	295.9	4.3077751243859
4	9015	296	7.5653674658828
4	9016	296.1	2.9041385641558
4	9017	296.2	3.9681603290657
4	9018	296.3	9.8206223636917
4	9019	296.4	2.6847979550483
4	9020	296.5	3.5105344690226
4	9021	296.6	6.4492103747336
4	9031	296.7	5.7066996042335
4	9032	296.8	1.9103875632451
4	9033	296.9	8.2182303509648
4	9043	297	3.2094367401047
4	9044	297.1	4.2684265982579
4	9045	297.2	9.9540933168901
4	9046	297.3	0.035009568180008
4	9047	297.4	7.5139485552457
4	9048	297.5	5.9886980047068
4	9049	297.6	2.7757532861202
4	9059	297.7	2.657194604823
4	9060	297.8	4.583295582411
4	9061	297.9	6.0640172582776
4	9071	298	7.45427892203
4	9072	298.1	5.8039259727643
4	9073	298.2	2.1889502678053
4	9074	298.3	8.7362121490241
[...]
35	94097	3627.6	8072.1454467786
35	94107	3627.7	8075.1377327877
35	94108	3627.8	8078.1302377964
35	94109	3627.9	8081.1247282261
35	94119	3628	8084.1195387193
35	94120	3628.1	8087.110606451
35	94121	3628.2	8090.1033611218
35	94122	3628.3	8093.0992114435
35	94123	3628.4	8096.0942964948
35	94124	3628.5	8099.0888855962
35	94125	3628.6	8102.0804500845
35	94135	3628.7	8105.0756027031
35	94136	3628.8	8108.0677266254
35	94137	3628.9	8111.0617379595
35	94147	3629	8114.0563343929
35	94148	3629.1	8117.049791723
35	94149	3629.2	8120.0447273687
35	94150	3629.3	8123.039365985
35	94151	3629.4	8126.0316296487
35	94152	3629.5	8129.0267115346
35	94153	3629.6	8132.0179052195
35	94163	3629.7	8135.0118761836
35	94164	3629.8	8138.0078961074
35	94165	3629.9	8141.002609185
35	94175	3630	8143.9952733635
35	94176	3630.1	8146.9901365239
35	94177	3630.2	8149.9807661389
35	94178	3630.3	8152.9726587095
35	94179	3630.4	8155.9643781587
35	94180	3630.5	8158.9600559052
35	94181	3630.6	8161.9555058808
35	94191	3630.7	8164.947761414
35	94192	3630.8	8167.9405815161
35	94193	3630.9	8170.9329821345
35	94203	3631	8173.9261896763
35	94204	3631.1	8176.9176459166
35	94205	3631.2	8179.9109501807
35	94206	3631.3	8182.9050844453
35	94207	3631.4	8185.8969544496
35	94208	3631.5	8188.8896015791
35	94209	3631.6	8191.8810745305
35	94219	3631.7	8194.8718512437
35	94220	3631.8	8197.8632793351
35	94221	3631.9	8200.8560803325
35	94231	3632	8203.8500566921
35	94232	3632.1	8206.8451458225
35	94233	3632.2	8209.8407439825
35	94234	3632.3	8212.8366531831
35	94235	3632.4	8215.8278791541
35	94236	3632.5	8218.8209589522
35	94237	3632.6	8221.8145380944
35	94247	3632.7	8224.8103015192
35	94248	3632.8	8227.8030489297
35	94249	3632.9	8230.7966743912
35	94259	3633	8233.7907032512
35	94260	3633.1	8236.7838746947
35	94261	3633.2	8239.7788096444
35	94262	3633.3	8242.7712104967
35	94263	3633.4	8245.7631199406
35	94264	3633.5	8248.7544028656
35	94265	3633.6	8251.7470908356
35	94275	3633.7	8254.7410159725
35	94276	3633.8	8257.7323371711
35	94277	3633.9	8260.7265910434
35	94287	3634	8263.7195005014
35	94288	3634.1	8266.7112897717
35	94289	3634.2	8269.701851477
35	94290	3634.3	8272.6928727785
35	94291	3634.4	8275.6835942023
35	94292	3634.5	8278.6779862269
35	94293	3634.6	8281.6722057845
35	94303	3634.7	8284.6673813957
35	94304	3634.8	8287.6617756019
35	94305	3634.9	8290.6567576733
35	94315	3635	8293.6497867795
35	94316	3635.1	8296.6436622692
35	94317	3635.2	8299.6389059972
35	94318	3635.3	8302.6338572784
35	94319	3635.4	8305.6267047211
35	94320	3635.5	8308.6181212996
35	94321	3635.6	8311.6097485827
35	94331	3635.7	8314.6008147028
35	94332	3635.8	8317.591576555
35	94333	3635.9	8320.5826908834
35	94343	3636	8323.5779901348
35	94344	3636.1	8326.5722329458
35	94345	3636.2	8329.5639153145
35	94346	3636.3	8332.5552135396
35	94347	3636.4	8335.5509364331
35	94348	3636.5	8338.5430832453
35	94349	3636.6	8341.5354503354
35	94359	3636.7	8344.530780401
35	94360	3636.8	8347.525092181
35	94361	3636.9	8350.5172048926
35	94371	3637	8353.5104058212
35	94372	3637.1	8356.5032260451
35	94373	3637.2	8359.4990861423
35	94374	3637.3	8362.494239124
35	94375	3637.4	8365.489422623
35	94376	3637.5	8368.4828432508
35	94377	3637.6	8371.4740608545
35	94387	3637.7	8374.4670060088
35	94388	3637.8	8377.4607565084
35	94389	3637.9	8380.4535841732
35	94399	3638	8383.4484846707
35	94400	3638.1	8386.443775794
35	94401	3638.2	8389.4397503695
35	94402	3638.3	8392.43254036
35	94403	3638.4	8395.4272815075
35	94404	3638.5	8398.4206821371
35	94405	3638.6	8401.4150554595
35	94415	3638.7	8404.4077754838
35	94416	3638.8	8407.4004099601
35	94417	3638.9	8410.3909943485
35	94427	3639	8413.3845807788
35	94428	3639.1	8416.3754942292
35	94429	3639.2	8419.3661029873
35	94430	3639.3	8422.3600392919
35	94431	3639.4	8425.3529223094
35	94432	3639.5	8428.3469466998
35	94433	3639.6	8431.3410222468
35	94443	3639.7	8434.3355112355
35	94444	3639.8	8437.3306603866
35	94445	3639.9	8440.3260490879
35	94455	3640	8443.3212995357
35	94456	3640.1	8446.3152764706
35	94457	3640.2	8449.3086324121
35	94458	3640.3	8452.2993427442
35	94459	3640.4	8455.291104728
35	94460	3640.5	8458.2828317318
35	94461	3640.6	8461.2758422296
35	94471	3640.7	8464.2680874393
35	94472	3640.8	8467.2632736253
35	94473	3640.9	8470.254959908
35	94483	3641	8473.249980904
35	94484	3641.1	8476.2439648952
35	94485	3641.2	8479.237568124
35	94486	3641.3	8482.2321939693
35	94487	3641.4	8485.2229088255
35	94488	3641.5	8488.2140945417
35	94489	3641.6	8491.2099517749
35	94499	3641.7	8494.2044202216
35	94500	3641.8	8497.1949949611
35	94501	3641.9	8500.1880952061
35	94511	3642	8503.1798871625
35	94512	3642.1	8506.1740646729
35	94513	3642.2	8509.1659598513
35	94514	3642.3	8512.1609100275
35	94515	3642.4	8515.1524844174
35	94516	3642.5	8518.1444564978
35	94517	3642.6	8521.1364401028
35	94527	3642.7	8524.1301423542
35	94528	3642.8	8527.121602645
35	94529	3642.9	8530.1166038852
35	94539	3643	8533.1097169717
35	94540	3643.1	8536.1005959325
35	94541	3643.2	8539.0940562431
35	94542	3643.3	8542.0854377042
35	94543	3643.4	8545.0772400841
35	94544	3643.5	8548.0679840875
35	94545	3643.6	8551.0590047805
35	94555	3643.7	8554.0495752975
35	94556	3643.8	8557.0418799467
35	94557	3643.9	8560.0336209387
35	94567	3644	8563.0291350972
35	94568	3644.1	8566.0220722521
35	94569	3644.2	8569.0141482422
35	94570	3644.3	8572.0078737811
35	94571	3644.4	8575.0006071412
35	94572	3644.5	8577.9915091547
35	94573	3644.6	8580.9865370303
35	94583	3644.7	8583.9814325524
35	94584	3644.8	8586.9753970978
35	94585	3644.9	8589.9707654086
35	94595	3645	8592.9618977744
35	94596	3645.1	8595.9564063075
35	94597	3645.2	8598.9513111615
35	94598	3645.3	8601.9439255359
35	94599	3645.4	8604.9383827443
35	94600	3645.5	8607.9338841935
35	94601	3645.6	8610.926604198
35	94611	3645.7	8613.9203065316
35	94612	3645.8	8616.9130350034
35	94613	3645.9	8619.9072679088
35	94623	3646	8622.9008998865
35	94624	3646.1	8625.893505931
35	94625	3646.2	8628.8882750915
35	94626	3646.3	8631.8806429724
35	94627	3646.4	8634.8716435068
35	94628	3646.5	8637.8676528542
35	94629	3646.6	8640.8629691333
35	94639	3646.7	8643.8556753938
35	94640	3646.8	8646.8498551594
35	94641	3646.9	8649.8407611783
35	94651	3647	8652.8329885907
35	94652	3647.1	8655.8288339381
35	94653	3647.2	8658.819580247
35	94654	3647.3	8661.8128711638
35	94655	3647.4	8664.8054407876
35	94656	3647.5	8667.7985494552
35	94657	3647.6	8670.7897773713
35	94667	3647.7	8673.7828009968
35	94668	3647.8	8676.7734003079
35	94669	3647.9	8679.7678659983
35	94679	3648	8682.760531228
35	94680	3648.1	8685.7555750454
35	94681	3648.2	8688.7495311768
35	94682	3648.3	8691.7405785221
35	94683	3648.4	8694.7335849849
35	94684	3648.5	8697.7257464757
35	94685	3648.6	8700.7210072963
35	94695	3648.7	8703.7157136667
35	94696	3648.8	8706.7102094804
35	94697	3648.9	8709.7021250341
35	94707	3649	8712.6951348305
35	94708	3649.1	8715.690256409
35	94709	3649.2	8718.6846815328
35	94710	3649.3	8721.6770111864
35	94711	3649.4	8724.6683969508
35	94712	3649.5	8727.6613398193
35	94713	3649.6	8730.6572100431
35	94723	3649.7	8733.6522903808
35	94724	3649.8	8736.6461932174
35	94725	3649.9	8739.6386158227
35	94735	3650	8742.6301604951
35	94736	3650.1	8745.6242501679
35	94737	3650.2	8748.6161610857
35	94738	3650.3	8751.6084473735
35	94739	3650.4	8754.5991096366
35	94740	3650.5	8757.592461937
35	94741	3650.6	8760.5852281156
35	94751	3650.7	8763.5812562014
35	94752	3650.8	8766.5725392962
35	94753	3650.9	8769.5642482429
35	94763	3651	8772.5575112171
35	94764	3651.1	8775.549886161
35	94765	3651.2	8778.5408776064
35	94766	3651.3	8781.5363629092
35	94767	3651.4	8784.5298200535
35	94768	3651.5	8787.5252576419
35	94769	3651.6	8790.5192152658
35	94779	3651.7	8793.5114938566
35	94780	3651.8	8796.5067669801
35	94781	3651.9	8799.5004560852
35	94791	3652	8802.4944607072
35	94792	3652.1	8805.486383411
35	94793	3652.2	8808.4782051646
35	94794	3652.3	8811.4690082754
35	94795	3652.4	8814.4448093454
35	94796	3652.5	8817.3806670295
35	94797	3652.6	8820.2765774059
35	94807	3652.7	8823.1325404748
35	94808	3652.8	8825.9485562361
35	94809	3652.9	8828.7246246897
35	94819	3653	8831.4607458358
35	94820	3653.1	8834.1569196743
35	94821	3653.2	8836.8131462052
35	94822	3653.3	8839.4298396693
35	94823	3653.4	8842.0065858258
35	94824	3653.5	8844.5433846746
35	94825	3653.6	8847.0402362159
35	94835	3653.7	8849.4971404496
35	94836	3653.8	8851.9140973757
35	94837	3653.9	8854.2911069942
35	94847	3654	8856.6281693051
35	94848	3654.1	8858.9252843085
35	94849	3654.2	8861.1824520042
35	94850	3654.3	8863.3996723923
35	94851	3654.4	8865.5769454729
35	94852	3654.5	8867.7142712458
35	94853	3654.6	8869.8116497112
35	94863	3654.7	8871.869080869
35	94864	3654.8	8873.8865647192
35	94865	3654.9	8875.8641012618
35	94875	3655	8877.7890772646
35	94876	3655.1	8879.6738031156
35	94877	3655.2	8881.5697671428
35	94878	3655.3	8883.4688011261
35	94879	3655.4	8885.3676744698
35	94880	3655.5	8887.267424716
35	94881	3655.6	8889.1675121722
35	94891	3655.7	8891.0660818896
35	94892	3655.8	8892.9637034708
35	94893	3655.9	8894.8591577586
35	94903	3656	8896.7590798874
35	94904	3656.1	8898.6589287605
35	94905	3656.2	8900.5579833989
35	94906	3656.3	8902.4574568305
35	94907	3656.4	8904.3540346426
35	94908	3656.5	8906.2520225353
35	94909	3656.6	8908.1505187258
35	94919	3656.7	8910.0468262365
35	94920	3656.8	8911.9461997519
35	94921	3656.9	8913.8462609884
35	94931	3657	8915.7422728195
35	94932	3657.1	8917.6374517368
35	94933	3657.2	8919.5376609344
35	94934	3657.3	8921.4366459742
35	94935	3657.4	8923.3343367349
35	94936	3657.5	8925.2304077178
35	94937	3657.6	8927.1262358159
35	94947	3657.7	8929.0222682308
35	94948	3657.8	8930.9200389745
35	94949	3657.9	8932.8155143672
35	94959	3658	8934.715249544
35	94960	3658.1	8936.6113199899
35	94961	3658.2	8938.5073500787
35	94962	3658.3	8940.4038619489
35	94963	3658.4	8942.2990527825
35	94964	3658.5	8944.1969250425
35	94965	3658.6	8946.0961098908
35	94975	3658.7	8947.9939825906
35	94976	3658.8	8949.8927159556
35	94977	3658.9	8951.7923430042
35	94987	3659	8953.6902154571
35	94988	3659.1	8955.5855804294
35	94989	3659.2	8957.4850621807
35	94990	3659.3	8959.3812426212
35	94991	3659.4	8961.2815785695
35	94992	3659.5	8963.1803735463
35	94993	3659.6	8965.0787470574
35	95003	3659.7	8966.9759800386
35	95004	3659.8	8968.8714501618
35	95005	3659.9	8970.7693806582
35	95015	3660	8972.6651347435
35	95016	3660.1	8974.5632507581
35	95017	3660.2	8976.4632247985
35	95018	3660.3	8978.3610502987
35	95019	3660.4	8980.2593046171
35	95020	3660.5	8982.1544452409
35	95021	3660.6	8984.0504145205
35	95031	3660.7	8985.9459093271
35	95032	3660.8	8987.8461321579
35	95033	3660.9	8989.7425909524
35	95043	3661	8991.640795325
35	95044	3661.1	8993.5400663711
35	95045	3661.2	8995.4400724819
35	95046	3661.3	8997.337350252
35	95047	3661.4	8999.2323544463
35	95048	3661.5	9001.127511907
35	95049	3661.6	9003.0229215984
35	95059	3661.7	9004.9198839189
35	95060	3661.8	9006.8181460428
35	95061	3661.9	9008.7132161324
35	95071	3662	9010.6089428281
35	95072	3662.1	9012.5072229316
35	95073	3662.2	9014.407214575
35	95074	3662.3	9016.3032198546
35	95075	3662.4	9018.1983234231
35	95076	3662.5	9020.0941425755
35	95077	3662.6	9021.9926356094
35	95087	3662.7	9023.8925374904
35	95088	3662.8	9025.7875520061
35	95089	3662.9	9027.6844582539
35	95099	3663	9029.5802755219
35	95100	3663.1	9031.4770108608
35	95101	3663.2	9033.3746671299
35	95102	3663.3	9035.270981306
35	95103	3663.4	9037.1694537588
35	95104	3663.5	9039.064319377
35	95105	3663.6	9040.9620537733
35	95115	3663.7	9042.8592737452
35	95116	3663.8	9044.7564654186
35	95117	3663.9	9046.6524833309
35	95127	3664	9048.5508312161
35	95128	3664.1	9050.4481655183
35	95129	3664.2	9052.3466031791
35	95130	3664.3	9054.2450122239
35	95131	3664.4	9056.1429100662
35	95132	3664.5	9058.0404760567
35	95133	3664.6	9059.9364685306
35	95143	3664.7	9061.8352479519
35	95144	3664.8	9063.7309401078
35	95145	3664.9	9065.6261527638
35	95155	3665	9067.524666597
35	95156	3665.1	9069.4245030701
35	95157	3665.2	9071.3243332712
35	95158	3665.3	9073.2239257453
35	95159	3665.4	9075.1224323899
35	95160	3665.5	9077.020268497
35	95161	3665.6	9078.9202810257
35	95171	3665.7	9080.8154791721
35	95172	3665.8	9082.7151617674
35	95173	3665.9	9084.6117654467
35	95183	3666	9086.5068594078
35	95184	3666.1	9088.4030759027
35	95185	3666.2	9090.3014023459
35	95186	3666.3	9092.1994531442
35	95187	3666.4	9094.0969848528
35	95188	3666.5	9095.9964597017
35	95189	3666.6	9097.8914703622
35	95199	3666.7	9099.7890938331
35	95200	3666.8	9101.6878254621
35	95201	3666.9	9103.5869006599
35	95211	3667	9105.4847653191
35	95212	3667.1	9107.3810991052
35	95213	3667.2	9109.2814428445
35	95214	3667.3	9111.1815579529
35	95215	3667.4	9113.0812272494
35	95216	3667.5	9114.9797203182
35	95217	3667.6	9116.8794925191
35	95227	3667.7	9118.7781433549
35	95228	3667.8	9120.6768384689
35	95229	3667.9	9122.5746313003
35	95239	3668	9124.4727951022
35	95240	3668.1	9126.3723002885
35	95241	3668.2	9128.2704450138
35	95242	3668.3	9130.1656618162
35	95243	3668.4	9132.0606480493
35	95244	3668.5	9133.9606347874
35	95245	3668.6	9135.85593662
35	95255	3668.7	9137.7532122235
35	95256	3668.8	9139.6529261038
35	95257	3668.9	9141.5532002425
35	95267	3669	9143.4519147851
35	95268	3669.1	9145.3492519069
35	95269	3669.2	9147.244845695
35	95270	3669.3	9149.1439167525
35	95271	3669.4	9151.0402808365
35	95272	3669.5	9152.9393148372
35	95273	3669.6	9154.8386222176
35	95283	3669.7	9156.733697942
35	95284	3669.8	9158.6303974457
35	95285	3669.9	9160.525912108
35	95295	3670	9162.4235060672
35	95296	3670.1	9164.3229505918
35	95297	3670.2	9166.2203447194
35	95298	3670.3	9168.1152211155
35	95299	3670.4	9170.0117376062
35	95300	3670.5	9171.9067195665
35	95301	3670.6	9173.8049837746
35	95311	3670.7	9175.703189344
35	95312	3670.8	9177.5981244149
35	95313	3670.9	9179.4961284896
35	95323	3671	9181.3920759694
35	95324	3671.1	9183.2872221473
35	95325	3671.2	9185.185420951
35	95326	3671.3	9187.085098245
35	95327	3671.4	9188.9852140675
35	95328	3671.5	9190.880335906
35	95329	3671.6	9192.7788812297
35	95339	3671.7	9194.6743677496
35	95340	3671.8	9196.5724789744
35	95341	3671.9	9198.4726144702
35	95351	3672	9200.3702278195
35	95352	3672.1	9202.2703077032
35	95353	3672.2	9204.1664511198
35	95354	3672.3	9205.8900012942
35	95355	3672.4	9207.3632840561
35	95356	3672.5	9209.0020261004
35	95357	3672.6	9210.9226901474
35	95367	3672.7	9212.8521217883
35	95368	3672.8	9214.7918806837
35	95369	3672.9	9216.7373604035
35	95379	3673	9218.6900362158
35	95380	3673.1	9220.6517518995
35	95381	3673.2	9222.6232567597
35	95382	3673.3	9224.6005680324
35	95383	3673.4	9226.5881198896
35	95384	3673.5	9228.5826400912
35	95385	3673.6	9230.5879617407
35	95395	3673.7	9232.6004484315
35	95396	3673.8	9234.6212418912
35	95397	3673.9	9236.6494637775
35	95407	3674	9238.6857708111
35	95408	3674.1	9240.7324778139
35	95409	3674.2	9242.7848144251
35	95410	3674.3	9244.845205251
35	95411	3674.4	9246.9115076197
35	95412	3674.5	9248.9851340741
35	95413	3674.6	9251.0676137947
35	95423	3674.7	9253.1591332798
35	95424	3674.8	9255.2582970482
35	95425	3674.9	9257.3646753765
35	95435	3675	9259.4815198781
35	95436	3675.1	9261.6041723637
35	95437	3675.2	9263.7355838908
35	95438	3675.3	9265.8754037511
35	95439	3675.4	9268.0248708705
35	95440	3675.5	9270.1842120221
35	95441	3675.6	9272.3503881662
35	95451	3675.7	9274.5238189849
35	95452	3675.8	9276.703471633
35	95453	3675.9	9278.890037929
35	95463	3676	9281.0839381862
35	95464	3676.1	9283.2859733534
35	95465	3676.2	9285.498655854
35	95466	3676.3	9287.7217634563
35	95467	3676.4	9289.9516048875
35	95468	3676.5	9292.1923648175
35	95469	3676.6	9294.4412616657
35	95479	3676.7	9296.7006896173
35	95480	3676.8	9298.9659825724
35	95481	3676.9	9301.240632767
35	95491	3677	9303.5235842561
35	95492	3677.1	9305.81329394
35	95493	3677.2	9308.1107152908
35	95494	3677.3	9310.4170234911
35	95495	3677.4	9312.7289549811
35	95496	3677.5	9315.047997803
35	95497	3677.6	9317.3776804822
35	95507	3677.7	9319.7139021343
35	95508	3677.8	9322.0584282509
35	95509	3677.9	9324.4105141162
35	95519	3678	9326.7725618509
35	95520	3678.1	9329.1425088364
35	95521	3678.2	9331.5199936684
35	95522	3678.3	9333.904153697
35	95523	3678.4	9336.2958085194
35	95524	3678.5	9338.6937720759
35	95525	3678.6	9341.1018296378
35	95535	3678.7	9343.5154616266
35	95536	3678.8	9345.935048649
35	95537	3678.9	9348.3620303376
35	95547	3679	9350.7959304424
35	95548	3679.1	9353.2400558992
35	95549	3679.2	9355.6935761156
35	95550	3679.3	9358.1570921896
35	95551	3679.4	9360.6292899441
35	95552	3679.5	9363.1076984946
35	95553	3679.6	9365.5958504926
35	95563	3679.7	9368.0897433162
35	95564	3679.8	9370.5897655462
35	95565	3679.9	9373.0995494128
35	95575	3680	9375.6193806937
35	95576	3680.1	9378.1475331781
35	95577	3680.2	9380.6835298682
35	95578	3680.3	9383.2256185867
35	95579	3680.4	9385.7781359354
35	95580	3680.5	9388.3390302051
35	95581	3680.6	9390.9074311353
35	95591	3680.7	9393.4845746387
35	95592	3680.8	9396.0717466522
35	95593	3680.9	9398.6686394346
35	95603	3681	9401.2732041022
35	95604	3681.1	9403.8879503949
35	95605	3681.2	9406.5114793841
35	95606	3681.3	9409.1411460612
35	95607	3681.4	9411.7783132094
35	95608	3681.5	9414.4249367348
35	95609	3681.6	9417.0798201221
35	95619	3681.7	9419.7409487746
35	95620	3681.8	9422.4092974403
35	95621	3681.9	9425.0842569903
35	95631	3682	9427.7663696576
35	95632	3682.1	9430.4551278116
35	95633	3682.2	9433.1541803486
35	95634	3682.3	9435.8622131097
35	95635	3682.4	9438.5781740208
35	95636	3682.5	9441.3034723258
35	95637	3682.6	9444.0374685977
35	95647	3682.7	9446.7790221413
35	95648	3682.8	9449.5282117093
35	95649	3682.9	9452.2831233544
35	95659	3683	9455.0441187664
35	95660	3683.1	9457.8107936361
35	95661	3683.2	9460.5853319125
35	95662	3683.3	9463.3703515678
35	95663	3683.4	9466.1636945009
35	95664	3683.5	9468.9653599222
35	95665	3683.6	9471.7726843717
35	95675	3683.7	9474.5895918179
35	95676	3683.8	9477.4166712674
35	95677	3683.9	9480.2544487795
35	95687	3684	9483.1030414853
35	95688	3684.1	9485.9608229332
35	95689	3684.2	9488.8253363116
35	95690	3684.3	9491.6997299623
35	95691	3684.4	9494.5809439121
35	95692	3684.5	9497.4700962641
35	95693	3684.6	9500.3662300662
35	95703	3684.7	9503.2679903001
35	95704	3684.8	9506.176592483
35	95705	3684.9	9509.0936809557
35	95715	3685	9512.0175985781
35	95716	3685.1	9514.948655466
35	95717	3685.2	9517.8896790843
35	95718	3685.3	9520.839784712
35	95719	3685.4	9523.7998891105
35	95720	3685.5	9526.7689663984
35	95721	3685.6	9529.7441402454
35	95731	3685.7	9532.7269642039
35	95732	3685.8	9535.7192352285
35	95733	3685.9	9538.7192058739
35	95743	3686	9541.7153183576
35	95744	3686.1	9544.7137416943
35	95745	3686.2	9547.7121265346
35	95746	3686.3	9550.7068026535
35	95747	3686.4	9553.7045722458
35	95748	3686.5	9556.7021965831
35	95749	3686.6	9559.6984548303
35	95759	3686.7	9562.6975550133
35	95760	3686.8	9565.6924695007
35	95761	3686.9	9568.6916671515
35	95771	3687	9571.6867100959
35	95772	3687.1	9574.685894286
35	95773	3687.2	9577.684515829
35	95774	3687.3	9580.6833290108
35	95775	3687.4	9583.6820359752
35	95776	3687.5	9586.6774436852
35	95777	3687.6	9589.6758457955
35	95787	3687.7	9592.6727495212
35	95788	3687.8	9595.672373376
35	95789	3687.9	9598.6714206746
35	95799	3688	9601.6679607188
35	95800	3688.1	9604.6657630796
35	95801	3688.2	9607.6635721347
35	95802	3688.3	9610.6598750008
35	95803	3688.4	9613.6576641251
35	95804	3688.5	9616.6570188908
35	95805	3688.6	9619.652206591
35	95815	3688.7	9622.6510488833
35	95816	3688.8	9625.6472596365
35	95817	3688.9	9628.6462782555
35	95827	3689	9631.6418629506
35	95828	3689.1	9634.6396713528
35	95829	3689.2	9637.6396426033
35	95830	3689.3	9640.6360614354
35	95831	3689.4	9643.6305917955
35	95832	3689.5	9646.6264504264
35	95833	3689.6	9649.6260988046
35	95843	3689.7	9652.6260444069
35	95844	3689.8	9655.6245488108
35	95845	3689.9	9658.6209753824
35	95855	3690	9661.6174645291
35	95856	3690.1	9664.6168401622
35	95857	3690.2	9667.6120276163
35	95858	3690.3	9670.6090591698
35	95859	3690.4	9673.6048051144
35	95860	3690.5	9676.6037229361

