file 5256250 1523598772                                         
version 2
run General-0-20180413-01:51:13-16373
attr configname General
attr datetime 20180413-01:51:13
attr experiment General
attr inifile omnetpp.ini
attr iterationvars ""
attr iterationvarsf ""
attr measurement ""
attr network SmartConeScenario
attr processid 16373
attr repetition 0
attr replication #0
attr resultdir results
attr runnumber 0
attr seedset 0
param **.debug false
param **.coreDebug false
param *.playgroundSizeX 50000m
param *.playgroundSizeY 2500m
param *.playgroundSizeZ 50m
param *.annotations.draw true
param *.manager.updateInterval 1s
param *.manager.host "\"localhost\""
param *.manager.port 9999
param *.manager.autoShutdown true
param *.manager.launchConfig "xmldoc(\"smartcone.launchd.xml\")"
param *.manager.penetrationRate 1
param *.rsu[0].mobility.x 2000
param *.rsu[0].mobility.y 2000
param *.rsu[0].mobility.z 3
param *.rsu[*].applType "\"TraCIDemoRSU11p\""
param *.rsu[*].appl.headerLength "80 bit"
param *.rsu[*].appl.sendBeacons false
param *.rsu[*].appl.dataOnSch false
param *.rsu[*].appl.beaconInterval 1s
param *.rsu[*].appl.beaconUserPriority 7
param *.rsu[*].appl.dataUserPriority 5
param *.connectionManager.sendDirect true
param *.connectionManager.maxInterfDist 2600m
param *.connectionManager.drawMaxIntfDist false
param *.**.nic.mac1609_4.useServiceChannel false
param *.**.nic.mac1609_4.txPower 20mW
param *.**.nic.mac1609_4.bitrate 6Mbps
param *.**.nic.phy80211p.sensitivity -89dBm
param *.**.nic.phy80211p.useThermalNoise true
param *.**.nic.phy80211p.thermalNoise -110dBm
param *.**.nic.phy80211p.decider "xmldoc(\"config.xml\")"
param *.**.nic.phy80211p.analogueModels "xmldoc(\"config.xml\")"
param *.**.nic.phy80211p.usePropagationDelay true
param *.**.nic.phy80211p.antenna "xmldoc(\"antenna.xml\", \"/root/Antenna[@id='monopole']\")"
param *.node[*].applType "\"SmartConeApp\""
param *.node[*].appl.headerLength "80 bit"
param *.node[*].appl.sendBeacons false
param *.node[*].appl.dataOnSch false
param *.node[*].appl.beaconInterval 1s
param *.node[*].veinsmobilityType.debug true
param *.node[*].veinsmobility.x 0
param *.node[*].veinsmobility.y 0
param *.node[*].veinsmobility.z 1.895

vector 0 SmartConeScenario.node[0].veinsmobility posx ETV
vector 1 SmartConeScenario.node[0].veinsmobility posy ETV
vector 2 SmartConeScenario.node[1].veinsmobility posx ETV
vector 3 SmartConeScenario.node[1].veinsmobility posy ETV
vector 4 SmartConeScenario.node[2].veinsmobility posx ETV
vector 5 SmartConeScenario.node[2].veinsmobility posy ETV
vector 6 SmartConeScenario.node[3].veinsmobility posx ETV
vector 7 SmartConeScenario.node[3].veinsmobility posy ETV
vector 8 SmartConeScenario.node[0].veinsmobility speed ETV
vector 9 SmartConeScenario.node[1].veinsmobility speed ETV
vector 10 SmartConeScenario.node[0].veinsmobility acceleration ETV
vector 11 SmartConeScenario.node[0].veinsmobility co2emission ETV
vector 12 SmartConeScenario.node[1].veinsmobility acceleration ETV
vector 13 SmartConeScenario.node[1].veinsmobility co2emission ETV
vector 14 SmartConeScenario.node[2].veinsmobility speed ETV
vector 15 SmartConeScenario.node[3].veinsmobility speed ETV
vector 16 SmartConeScenario.node[4].veinsmobility posx ETV
vector 17 SmartConeScenario.node[4].veinsmobility posy ETV
vector 18 SmartConeScenario.node[5].veinsmobility posx ETV
vector 19 SmartConeScenario.node[5].veinsmobility posy ETV
vector 20 SmartConeScenario.node[2].veinsmobility acceleration ETV
vector 21 SmartConeScenario.node[2].veinsmobility co2emission ETV
vector 22 SmartConeScenario.node[3].veinsmobility acceleration ETV
vector 23 SmartConeScenario.node[3].veinsmobility co2emission ETV
vector 24 SmartConeScenario.node[4].veinsmobility speed ETV
vector 25 SmartConeScenario.node[5].veinsmobility speed ETV
vector 26 SmartConeScenario.node[6].veinsmobility posx ETV
vector 27 SmartConeScenario.node[6].veinsmobility posy ETV
vector 28 SmartConeScenario.node[7].veinsmobility posx ETV
vector 29 SmartConeScenario.node[7].veinsmobility posy ETV
vector 30 SmartConeScenario.node[4].veinsmobility acceleration ETV
vector 31 SmartConeScenario.node[4].veinsmobility co2emission ETV
vector 32 SmartConeScenario.node[5].veinsmobility acceleration ETV
vector 33 SmartConeScenario.node[5].veinsmobility co2emission ETV
vector 34 SmartConeScenario.node[6].veinsmobility speed ETV
vector 35 SmartConeScenario.node[7].veinsmobility speed ETV
vector 36 SmartConeScenario.node[8].veinsmobility posx ETV
vector 37 SmartConeScenario.node[8].veinsmobility posy ETV
vector 38 SmartConeScenario.node[9].veinsmobility posx ETV
vector 39 SmartConeScenario.node[9].veinsmobility posy ETV
vector 40 SmartConeScenario.node[6].veinsmobility acceleration ETV
vector 41 SmartConeScenario.node[6].veinsmobility co2emission ETV
vector 42 SmartConeScenario.node[7].veinsmobility acceleration ETV
vector 43 SmartConeScenario.node[7].veinsmobility co2emission ETV
vector 44 SmartConeScenario.node[8].veinsmobility speed ETV
vector 45 SmartConeScenario.node[9].veinsmobility speed ETV
vector 46 SmartConeScenario.node[10].veinsmobility posx ETV
vector 47 SmartConeScenario.node[10].veinsmobility posy ETV
vector 48 SmartConeScenario.node[11].veinsmobility posx ETV
vector 49 SmartConeScenario.node[11].veinsmobility posy ETV
vector 50 SmartConeScenario.node[8].veinsmobility acceleration ETV
vector 51 SmartConeScenario.node[8].veinsmobility co2emission ETV
vector 52 SmartConeScenario.node[9].veinsmobility acceleration ETV
vector 53 SmartConeScenario.node[9].veinsmobility co2emission ETV
vector 54 SmartConeScenario.node[12].veinsmobility posx ETV
vector 55 SmartConeScenario.node[12].veinsmobility posy ETV
vector 56 SmartConeScenario.node[13].veinsmobility posx ETV
vector 57 SmartConeScenario.node[13].veinsmobility posy ETV
vector 58 SmartConeScenario.node[10].veinsmobility speed ETV
vector 59 SmartConeScenario.node[11].veinsmobility speed ETV
vector 60 SmartConeScenario.node[10].veinsmobility acceleration ETV
vector 61 SmartConeScenario.node[10].veinsmobility co2emission ETV
vector 62 SmartConeScenario.node[11].veinsmobility acceleration ETV
vector 63 SmartConeScenario.node[11].veinsmobility co2emission ETV
vector 64 SmartConeScenario.node[12].veinsmobility speed ETV
vector 65 SmartConeScenario.node[13].veinsmobility speed ETV
vector 66 SmartConeScenario.node[14].veinsmobility posx ETV
vector 67 SmartConeScenario.node[14].veinsmobility posy ETV
vector 68 SmartConeScenario.node[15].veinsmobility posx ETV
vector 69 SmartConeScenario.node[15].veinsmobility posy ETV
vector 70 SmartConeScenario.node[12].veinsmobility acceleration ETV
vector 71 SmartConeScenario.node[12].veinsmobility co2emission ETV
vector 72 SmartConeScenario.node[13].veinsmobility acceleration ETV
vector 73 SmartConeScenario.node[13].veinsmobility co2emission ETV
vector 74 SmartConeScenario.node[14].veinsmobility speed ETV
vector 75 SmartConeScenario.node[15].veinsmobility speed ETV
vector 76 SmartConeScenario.node[16].veinsmobility posx ETV
vector 77 SmartConeScenario.node[16].veinsmobility posy ETV
vector 78 SmartConeScenario.node[17].veinsmobility posx ETV
vector 79 SmartConeScenario.node[17].veinsmobility posy ETV
vector 80 SmartConeScenario.node[14].veinsmobility acceleration ETV
vector 81 SmartConeScenario.node[14].veinsmobility co2emission ETV
vector 82 SmartConeScenario.node[15].veinsmobility acceleration ETV
vector 83 SmartConeScenario.node[15].veinsmobility co2emission ETV
vector 84 SmartConeScenario.node[16].veinsmobility speed ETV
vector 85 SmartConeScenario.node[17].veinsmobility speed ETV
vector 86 SmartConeScenario.node[18].veinsmobility posx ETV
vector 87 SmartConeScenario.node[18].veinsmobility posy ETV
vector 88 SmartConeScenario.node[19].veinsmobility posx ETV
vector 89 SmartConeScenario.node[19].veinsmobility posy ETV
vector 90 SmartConeScenario.node[16].veinsmobility acceleration ETV
vector 91 SmartConeScenario.node[16].veinsmobility co2emission ETV
vector 92 SmartConeScenario.node[17].veinsmobility acceleration ETV
vector 93 SmartConeScenario.node[17].veinsmobility co2emission ETV
vector 94 SmartConeScenario.node[18].veinsmobility speed ETV
vector 95 SmartConeScenario.node[19].veinsmobility speed ETV
vector 96 SmartConeScenario.node[20].veinsmobility posx ETV
vector 97 SmartConeScenario.node[20].veinsmobility posy ETV
vector 98 SmartConeScenario.node[21].veinsmobility posx ETV
vector 99 SmartConeScenario.node[21].veinsmobility posy ETV
vector 100 SmartConeScenario.node[18].veinsmobility acceleration ETV
vector 101 SmartConeScenario.node[18].veinsmobility co2emission ETV
vector 102 SmartConeScenario.node[19].veinsmobility acceleration ETV
vector 103 SmartConeScenario.node[19].veinsmobility co2emission ETV
vector 104 SmartConeScenario.node[22].veinsmobility posx ETV
vector 105 SmartConeScenario.node[22].veinsmobility posy ETV
vector 106 SmartConeScenario.node[23].veinsmobility posx ETV
vector 107 SmartConeScenario.node[23].veinsmobility posy ETV
vector 108 SmartConeScenario.node[20].veinsmobility speed ETV
vector 109 SmartConeScenario.node[21].veinsmobility speed ETV
vector 110 SmartConeScenario.node[20].veinsmobility acceleration ETV
vector 111 SmartConeScenario.node[20].veinsmobility co2emission ETV
vector 112 SmartConeScenario.node[21].veinsmobility acceleration ETV
vector 113 SmartConeScenario.node[21].veinsmobility co2emission ETV
vector 114 SmartConeScenario.node[22].veinsmobility speed ETV
vector 115 SmartConeScenario.node[23].veinsmobility speed ETV
vector 116 SmartConeScenario.node[24].veinsmobility posx ETV
vector 117 SmartConeScenario.node[24].veinsmobility posy ETV
vector 118 SmartConeScenario.node[25].veinsmobility posx ETV
vector 119 SmartConeScenario.node[25].veinsmobility posy ETV
vector 120 SmartConeScenario.node[22].veinsmobility acceleration ETV
vector 121 SmartConeScenario.node[22].veinsmobility co2emission ETV
vector 122 SmartConeScenario.node[23].veinsmobility acceleration ETV
vector 123 SmartConeScenario.node[23].veinsmobility co2emission ETV
vector 124 SmartConeScenario.node[24].veinsmobility speed ETV
vector 125 SmartConeScenario.node[25].veinsmobility speed ETV
vector 126 SmartConeScenario.node[26].veinsmobility posx ETV
vector 127 SmartConeScenario.node[26].veinsmobility posy ETV
vector 128 SmartConeScenario.node[27].veinsmobility posx ETV
vector 129 SmartConeScenario.node[27].veinsmobility posy ETV
vector 130 SmartConeScenario.node[24].veinsmobility acceleration ETV
vector 131 SmartConeScenario.node[24].veinsmobility co2emission ETV
vector 132 SmartConeScenario.node[25].veinsmobility acceleration ETV
vector 133 SmartConeScenario.node[25].veinsmobility co2emission ETV
vector 134 SmartConeScenario.node[26].veinsmobility speed ETV
vector 135 SmartConeScenario.node[27].veinsmobility speed ETV
vector 136 SmartConeScenario.node[28].veinsmobility posx ETV
vector 137 SmartConeScenario.node[28].veinsmobility posy ETV
vector 138 SmartConeScenario.node[29].veinsmobility posx ETV
vector 139 SmartConeScenario.node[29].veinsmobility posy ETV
vector 140 SmartConeScenario.node[26].veinsmobility acceleration ETV
vector 141 SmartConeScenario.node[26].veinsmobility co2emission ETV
vector 142 SmartConeScenario.node[27].veinsmobility acceleration ETV
vector 143 SmartConeScenario.node[27].veinsmobility co2emission ETV
vector 144 SmartConeScenario.node[28].veinsmobility speed ETV
vector 145 SmartConeScenario.node[29].veinsmobility speed ETV
vector 146 SmartConeScenario.node[30].veinsmobility posx ETV
vector 147 SmartConeScenario.node[30].veinsmobility posy ETV
vector 148 SmartConeScenario.node[31].veinsmobility posx ETV
vector 149 SmartConeScenario.node[31].veinsmobility posy ETV
vector 150 SmartConeScenario.node[28].veinsmobility acceleration ETV
vector 151 SmartConeScenario.node[28].veinsmobility co2emission ETV
vector 152 SmartConeScenario.node[29].veinsmobility acceleration ETV
vector 153 SmartConeScenario.node[29].veinsmobility co2emission ETV
vector 154 SmartConeScenario.node[32].veinsmobility posx ETV
vector 155 SmartConeScenario.node[32].veinsmobility posy ETV
vector 156 SmartConeScenario.node[33].veinsmobility posx ETV
vector 157 SmartConeScenario.node[33].veinsmobility posy ETV
vector 158 SmartConeScenario.node[30].veinsmobility speed ETV
vector 159 SmartConeScenario.node[31].veinsmobility speed ETV
vector 160 SmartConeScenario.node[30].veinsmobility acceleration ETV
vector 161 SmartConeScenario.node[30].veinsmobility co2emission ETV
vector 162 SmartConeScenario.node[31].veinsmobility acceleration ETV
vector 163 SmartConeScenario.node[31].veinsmobility co2emission ETV
vector 164 SmartConeScenario.node[32].veinsmobility speed ETV
vector 165 SmartConeScenario.node[33].veinsmobility speed ETV
vector 166 SmartConeScenario.node[34].veinsmobility posx ETV
vector 167 SmartConeScenario.node[34].veinsmobility posy ETV
vector 168 SmartConeScenario.node[35].veinsmobility posx ETV
vector 169 SmartConeScenario.node[35].veinsmobility posy ETV
vector 170 SmartConeScenario.node[32].veinsmobility acceleration ETV
vector 171 SmartConeScenario.node[32].veinsmobility co2emission ETV
vector 172 SmartConeScenario.node[33].veinsmobility acceleration ETV
vector 173 SmartConeScenario.node[33].veinsmobility co2emission ETV
vector 174 SmartConeScenario.node[34].veinsmobility speed ETV
vector 175 SmartConeScenario.node[35].veinsmobility speed ETV
vector 176 SmartConeScenario.node[36].veinsmobility posx ETV
vector 177 SmartConeScenario.node[36].veinsmobility posy ETV
vector 178 SmartConeScenario.node[37].veinsmobility posx ETV
vector 179 SmartConeScenario.node[37].veinsmobility posy ETV
vector 180 SmartConeScenario.node[34].veinsmobility acceleration ETV
vector 181 SmartConeScenario.node[34].veinsmobility co2emission ETV
vector 182 SmartConeScenario.node[35].veinsmobility acceleration ETV
vector 183 SmartConeScenario.node[35].veinsmobility co2emission ETV
vector 184 SmartConeScenario.node[36].veinsmobility speed ETV
vector 185 SmartConeScenario.node[37].veinsmobility speed ETV
vector 186 SmartConeScenario.node[38].veinsmobility posx ETV
vector 187 SmartConeScenario.node[38].veinsmobility posy ETV
vector 188 SmartConeScenario.node[39].veinsmobility posx ETV
vector 189 SmartConeScenario.node[39].veinsmobility posy ETV
vector 190 SmartConeScenario.node[36].veinsmobility acceleration ETV
vector 191 SmartConeScenario.node[36].veinsmobility co2emission ETV
vector 192 SmartConeScenario.node[37].veinsmobility acceleration ETV
vector 193 SmartConeScenario.node[37].veinsmobility co2emission ETV
vector 194 SmartConeScenario.node[38].veinsmobility speed ETV
vector 195 SmartConeScenario.node[39].veinsmobility speed ETV
vector 196 SmartConeScenario.node[40].veinsmobility posx ETV
vector 197 SmartConeScenario.node[40].veinsmobility posy ETV
vector 198 SmartConeScenario.node[41].veinsmobility posx ETV
vector 199 SmartConeScenario.node[41].veinsmobility posy ETV
vector 200 SmartConeScenario.node[38].veinsmobility acceleration ETV
vector 201 SmartConeScenario.node[38].veinsmobility co2emission ETV
vector 202 SmartConeScenario.node[39].veinsmobility acceleration ETV
vector 203 SmartConeScenario.node[39].veinsmobility co2emission ETV
vector 204 SmartConeScenario.node[42].veinsmobility posx ETV
vector 205 SmartConeScenario.node[42].veinsmobility posy ETV
vector 206 SmartConeScenario.node[43].veinsmobility posx ETV
vector 207 SmartConeScenario.node[43].veinsmobility posy ETV
vector 208 SmartConeScenario.node[40].veinsmobility speed ETV
vector 209 SmartConeScenario.node[41].veinsmobility speed ETV
vector 210 SmartConeScenario.node[40].veinsmobility acceleration ETV
vector 211 SmartConeScenario.node[40].veinsmobility co2emission ETV
vector 212 SmartConeScenario.node[41].veinsmobility acceleration ETV
vector 213 SmartConeScenario.node[41].veinsmobility co2emission ETV
vector 214 SmartConeScenario.node[42].veinsmobility speed ETV
vector 215 SmartConeScenario.node[43].veinsmobility speed ETV
vector 216 SmartConeScenario.node[44].veinsmobility posx ETV
vector 217 SmartConeScenario.node[44].veinsmobility posy ETV
vector 218 SmartConeScenario.node[42].veinsmobility acceleration ETV
vector 219 SmartConeScenario.node[42].veinsmobility co2emission ETV
vector 220 SmartConeScenario.node[43].veinsmobility acceleration ETV
vector 221 SmartConeScenario.node[43].veinsmobility co2emission ETV
vector 222 SmartConeScenario.node[45].veinsmobility posx ETV
vector 223 SmartConeScenario.node[45].veinsmobility posy ETV
vector 224 SmartConeScenario.node[44].veinsmobility speed ETV
vector 225 SmartConeScenario.node[46].veinsmobility posx ETV
vector 226 SmartConeScenario.node[46].veinsmobility posy ETV
vector 227 SmartConeScenario.node[47].veinsmobility posx ETV
vector 228 SmartConeScenario.node[47].veinsmobility posy ETV
vector 229 SmartConeScenario.node[44].veinsmobility acceleration ETV
vector 230 SmartConeScenario.node[44].veinsmobility co2emission ETV
vector 231 SmartConeScenario.node[45].veinsmobility speed ETV
vector 232 SmartConeScenario.node[45].veinsmobility acceleration ETV
vector 233 SmartConeScenario.node[45].veinsmobility co2emission ETV
vector 234 SmartConeScenario.node[46].veinsmobility speed ETV
vector 235 SmartConeScenario.node[47].veinsmobility speed ETV
vector 236 SmartConeScenario.node[48].veinsmobility posx ETV
vector 237 SmartConeScenario.node[48].veinsmobility posy ETV
vector 238 SmartConeScenario.node[49].veinsmobility posx ETV
vector 239 SmartConeScenario.node[49].veinsmobility posy ETV
vector 240 SmartConeScenario.node[46].veinsmobility acceleration ETV
vector 241 SmartConeScenario.node[46].veinsmobility co2emission ETV
vector 242 SmartConeScenario.node[47].veinsmobility acceleration ETV
vector 243 SmartConeScenario.node[47].veinsmobility co2emission ETV
vector 244 SmartConeScenario.node[48].veinsmobility speed ETV
vector 245 SmartConeScenario.node[49].veinsmobility speed ETV
vector 246 SmartConeScenario.node[50].veinsmobility posx ETV
vector 247 SmartConeScenario.node[50].veinsmobility posy ETV
vector 248 SmartConeScenario.node[51].veinsmobility posx ETV
vector 249 SmartConeScenario.node[51].veinsmobility posy ETV
vector 250 SmartConeScenario.node[48].veinsmobility acceleration ETV
vector 251 SmartConeScenario.node[48].veinsmobility co2emission ETV
vector 252 SmartConeScenario.node[49].veinsmobility acceleration ETV
vector 253 SmartConeScenario.node[49].veinsmobility co2emission ETV
vector 254 SmartConeScenario.node[52].veinsmobility posx ETV
vector 255 SmartConeScenario.node[52].veinsmobility posy ETV
vector 256 SmartConeScenario.node[53].veinsmobility posx ETV
vector 257 SmartConeScenario.node[53].veinsmobility posy ETV
vector 258 SmartConeScenario.node[50].veinsmobility speed ETV
vector 259 SmartConeScenario.node[51].veinsmobility speed ETV
vector 260 SmartConeScenario.node[50].veinsmobility acceleration ETV
vector 261 SmartConeScenario.node[50].veinsmobility co2emission ETV
vector 262 SmartConeScenario.node[51].veinsmobility acceleration ETV
vector 263 SmartConeScenario.node[51].veinsmobility co2emission ETV
vector 264 SmartConeScenario.node[52].veinsmobility speed ETV
vector 265 SmartConeScenario.node[53].veinsmobility speed ETV
vector 266 SmartConeScenario.node[54].veinsmobility posx ETV
vector 267 SmartConeScenario.node[54].veinsmobility posy ETV
vector 268 SmartConeScenario.node[55].veinsmobility posx ETV
vector 269 SmartConeScenario.node[55].veinsmobility posy ETV
vector 270 SmartConeScenario.node[52].veinsmobility acceleration ETV
vector 271 SmartConeScenario.node[52].veinsmobility co2emission ETV
vector 272 SmartConeScenario.node[53].veinsmobility acceleration ETV
vector 273 SmartConeScenario.node[53].veinsmobility co2emission ETV
vector 274 SmartConeScenario.node[54].veinsmobility speed ETV
vector 275 SmartConeScenario.node[55].veinsmobility speed ETV
vector 276 SmartConeScenario.node[56].veinsmobility posx ETV
vector 277 SmartConeScenario.node[56].veinsmobility posy ETV
vector 278 SmartConeScenario.node[57].veinsmobility posx ETV
vector 279 SmartConeScenario.node[57].veinsmobility posy ETV
vector 280 SmartConeScenario.node[54].veinsmobility acceleration ETV
vector 281 SmartConeScenario.node[54].veinsmobility co2emission ETV
vector 282 SmartConeScenario.node[55].veinsmobility acceleration ETV
vector 283 SmartConeScenario.node[55].veinsmobility co2emission ETV
vector 284 SmartConeScenario.node[56].veinsmobility speed ETV
vector 285 SmartConeScenario.node[57].veinsmobility speed ETV
vector 286 SmartConeScenario.node[58].veinsmobility posx ETV
vector 287 SmartConeScenario.node[58].veinsmobility posy ETV
vector 288 SmartConeScenario.node[59].veinsmobility posx ETV
vector 289 SmartConeScenario.node[59].veinsmobility posy ETV
vector 290 SmartConeScenario.node[56].veinsmobility acceleration ETV
vector 291 SmartConeScenario.node[56].veinsmobility co2emission ETV
vector 292 SmartConeScenario.node[57].veinsmobility acceleration ETV
vector 293 SmartConeScenario.node[57].veinsmobility co2emission ETV
vector 294 SmartConeScenario.node[58].veinsmobility speed ETV
vector 295 SmartConeScenario.node[59].veinsmobility speed ETV
vector 296 SmartConeScenario.node[60].veinsmobility posx ETV
vector 297 SmartConeScenario.node[60].veinsmobility posy ETV
vector 298 SmartConeScenario.node[61].veinsmobility posx ETV
vector 299 SmartConeScenario.node[61].veinsmobility posy ETV
vector 300 SmartConeScenario.node[58].veinsmobility acceleration ETV
vector 301 SmartConeScenario.node[58].veinsmobility co2emission ETV
vector 302 SmartConeScenario.node[59].veinsmobility acceleration ETV
vector 303 SmartConeScenario.node[59].veinsmobility co2emission ETV
vector 304 SmartConeScenario.node[62].veinsmobility posx ETV
vector 305 SmartConeScenario.node[62].veinsmobility posy ETV
vector 306 SmartConeScenario.node[63].veinsmobility posx ETV
vector 307 SmartConeScenario.node[63].veinsmobility posy ETV
vector 308 SmartConeScenario.node[60].veinsmobility speed ETV
vector 309 SmartConeScenario.node[61].veinsmobility speed ETV
vector 310 SmartConeScenario.node[60].veinsmobility acceleration ETV
vector 311 SmartConeScenario.node[60].veinsmobility co2emission ETV
vector 312 SmartConeScenario.node[61].veinsmobility acceleration ETV
vector 313 SmartConeScenario.node[61].veinsmobility co2emission ETV
vector 314 SmartConeScenario.node[62].veinsmobility speed ETV
vector 315 SmartConeScenario.node[63].veinsmobility speed ETV
vector 316 SmartConeScenario.node[64].veinsmobility posx ETV
vector 317 SmartConeScenario.node[64].veinsmobility posy ETV
vector 318 SmartConeScenario.node[65].veinsmobility posx ETV
vector 319 SmartConeScenario.node[65].veinsmobility posy ETV
vector 320 SmartConeScenario.node[62].veinsmobility acceleration ETV
vector 321 SmartConeScenario.node[62].veinsmobility co2emission ETV
vector 322 SmartConeScenario.node[63].veinsmobility acceleration ETV
vector 323 SmartConeScenario.node[63].veinsmobility co2emission ETV
vector 324 SmartConeScenario.node[64].veinsmobility speed ETV
vector 325 SmartConeScenario.node[65].veinsmobility speed ETV
vector 326 SmartConeScenario.node[66].veinsmobility posx ETV
vector 327 SmartConeScenario.node[66].veinsmobility posy ETV
vector 328 SmartConeScenario.node[67].veinsmobility posx ETV
vector 329 SmartConeScenario.node[67].veinsmobility posy ETV
vector 330 SmartConeScenario.node[64].veinsmobility acceleration ETV
vector 331 SmartConeScenario.node[64].veinsmobility co2emission ETV
vector 332 SmartConeScenario.node[65].veinsmobility acceleration ETV
vector 333 SmartConeScenario.node[65].veinsmobility co2emission ETV
vector 334 SmartConeScenario.node[66].veinsmobility speed ETV
vector 335 SmartConeScenario.node[67].veinsmobility speed ETV
vector 336 SmartConeScenario.node[68].veinsmobility posx ETV
vector 337 SmartConeScenario.node[68].veinsmobility posy ETV
vector 338 SmartConeScenario.node[69].veinsmobility posx ETV
vector 339 SmartConeScenario.node[69].veinsmobility posy ETV
vector 340 SmartConeScenario.node[66].veinsmobility acceleration ETV
vector 341 SmartConeScenario.node[66].veinsmobility co2emission ETV
vector 342 SmartConeScenario.node[67].veinsmobility acceleration ETV
vector 343 SmartConeScenario.node[67].veinsmobility co2emission ETV
vector 344 SmartConeScenario.node[68].veinsmobility speed ETV
vector 345 SmartConeScenario.node[69].veinsmobility speed ETV
vector 346 SmartConeScenario.node[70].veinsmobility posx ETV
vector 347 SmartConeScenario.node[70].veinsmobility posy ETV
vector 348 SmartConeScenario.node[71].veinsmobility posx ETV
vector 349 SmartConeScenario.node[71].veinsmobility posy ETV
vector 350 SmartConeScenario.node[68].veinsmobility acceleration ETV
vector 351 SmartConeScenario.node[68].veinsmobility co2emission ETV
vector 352 SmartConeScenario.node[69].veinsmobility acceleration ETV
vector 353 SmartConeScenario.node[69].veinsmobility co2emission ETV
vector 354 SmartConeScenario.node[72].veinsmobility posx ETV
vector 355 SmartConeScenario.node[72].veinsmobility posy ETV
vector 356 SmartConeScenario.node[73].veinsmobility posx ETV
vector 357 SmartConeScenario.node[73].veinsmobility posy ETV
vector 358 SmartConeScenario.node[70].veinsmobility speed ETV
vector 359 SmartConeScenario.node[71].veinsmobility speed ETV
vector 360 SmartConeScenario.node[70].veinsmobility acceleration ETV
vector 361 SmartConeScenario.node[70].veinsmobility co2emission ETV
vector 362 SmartConeScenario.node[71].veinsmobility acceleration ETV
vector 363 SmartConeScenario.node[71].veinsmobility co2emission ETV
vector 364 SmartConeScenario.node[72].veinsmobility speed ETV
vector 365 SmartConeScenario.node[73].veinsmobility speed ETV
vector 366 SmartConeScenario.node[74].veinsmobility posx ETV
vector 367 SmartConeScenario.node[74].veinsmobility posy ETV
vector 368 SmartConeScenario.node[72].veinsmobility acceleration ETV
vector 369 SmartConeScenario.node[72].veinsmobility co2emission ETV
vector 370 SmartConeScenario.node[73].veinsmobility acceleration ETV
vector 371 SmartConeScenario.node[73].veinsmobility co2emission ETV
vector 372 SmartConeScenario.node[75].veinsmobility posx ETV
vector 373 SmartConeScenario.node[75].veinsmobility posy ETV
vector 374 SmartConeScenario.node[74].veinsmobility speed ETV
vector 375 SmartConeScenario.node[76].veinsmobility posx ETV
vector 376 SmartConeScenario.node[76].veinsmobility posy ETV
vector 377 SmartConeScenario.node[77].veinsmobility posx ETV
vector 378 SmartConeScenario.node[77].veinsmobility posy ETV
vector 379 SmartConeScenario.node[74].veinsmobility acceleration ETV
vector 380 SmartConeScenario.node[74].veinsmobility co2emission ETV
vector 381 SmartConeScenario.node[75].veinsmobility speed ETV
vector 382 SmartConeScenario.node[75].veinsmobility acceleration ETV
vector 383 SmartConeScenario.node[75].veinsmobility co2emission ETV
vector 384 SmartConeScenario.node[76].veinsmobility speed ETV
vector 385 SmartConeScenario.node[77].veinsmobility speed ETV
vector 386 SmartConeScenario.node[78].veinsmobility posx ETV
vector 387 SmartConeScenario.node[78].veinsmobility posy ETV
vector 388 SmartConeScenario.node[79].veinsmobility posx ETV
vector 389 SmartConeScenario.node[79].veinsmobility posy ETV
vector 390 SmartConeScenario.node[76].veinsmobility acceleration ETV
vector 391 SmartConeScenario.node[76].veinsmobility co2emission ETV
vector 392 SmartConeScenario.node[77].veinsmobility acceleration ETV
vector 393 SmartConeScenario.node[77].veinsmobility co2emission ETV
vector 394 SmartConeScenario.node[78].veinsmobility speed ETV
vector 395 SmartConeScenario.node[79].veinsmobility speed ETV
vector 396 SmartConeScenario.node[80].veinsmobility posx ETV
vector 397 SmartConeScenario.node[80].veinsmobility posy ETV
vector 398 SmartConeScenario.node[81].veinsmobility posx ETV
vector 399 SmartConeScenario.node[81].veinsmobility posy ETV
vector 400 SmartConeScenario.node[78].veinsmobility acceleration ETV
vector 401 SmartConeScenario.node[78].veinsmobility co2emission ETV
vector 402 SmartConeScenario.node[79].veinsmobility acceleration ETV
vector 403 SmartConeScenario.node[79].veinsmobility co2emission ETV
vector 404 SmartConeScenario.node[82].veinsmobility posx ETV
vector 405 SmartConeScenario.node[82].veinsmobility posy ETV
vector 406 SmartConeScenario.node[80].veinsmobility speed ETV
vector 407 SmartConeScenario.node[81].veinsmobility speed ETV
vector 408 SmartConeScenario.node[83].veinsmobility posx ETV
vector 409 SmartConeScenario.node[83].veinsmobility posy ETV
vector 410 SmartConeScenario.node[80].veinsmobility acceleration ETV
vector 411 SmartConeScenario.node[80].veinsmobility co2emission ETV
vector 412 SmartConeScenario.node[81].veinsmobility acceleration ETV
vector 413 SmartConeScenario.node[81].veinsmobility co2emission ETV
vector 414 SmartConeScenario.node[82].veinsmobility speed ETV
vector 415 SmartConeScenario.node[84].veinsmobility posx ETV
vector 416 SmartConeScenario.node[84].veinsmobility posy ETV
vector 417 SmartConeScenario.node[85].veinsmobility posx ETV
vector 418 SmartConeScenario.node[85].veinsmobility posy ETV
vector 419 SmartConeScenario.node[82].veinsmobility acceleration ETV
vector 420 SmartConeScenario.node[82].veinsmobility co2emission ETV
vector 421 SmartConeScenario.node[83].veinsmobility speed ETV
vector 422 SmartConeScenario.node[83].veinsmobility acceleration ETV
vector 423 SmartConeScenario.node[83].veinsmobility co2emission ETV
vector 424 SmartConeScenario.node[84].veinsmobility speed ETV
vector 425 SmartConeScenario.node[85].veinsmobility speed ETV
vector 426 SmartConeScenario.node[86].veinsmobility posx ETV
vector 427 SmartConeScenario.node[86].veinsmobility posy ETV
vector 428 SmartConeScenario.node[87].veinsmobility posx ETV
vector 429 SmartConeScenario.node[87].veinsmobility posy ETV
vector 430 SmartConeScenario.node[84].veinsmobility acceleration ETV
vector 431 SmartConeScenario.node[84].veinsmobility co2emission ETV
vector 432 SmartConeScenario.node[85].veinsmobility acceleration ETV
vector 433 SmartConeScenario.node[85].veinsmobility co2emission ETV
vector 434 SmartConeScenario.node[86].veinsmobility speed ETV
vector 435 SmartConeScenario.node[87].veinsmobility speed ETV
vector 436 SmartConeScenario.node[88].veinsmobility posx ETV
vector 437 SmartConeScenario.node[88].veinsmobility posy ETV
vector 438 SmartConeScenario.node[89].veinsmobility posx ETV
vector 439 SmartConeScenario.node[89].veinsmobility posy ETV
vector 440 SmartConeScenario.node[86].veinsmobility acceleration ETV
vector 441 SmartConeScenario.node[86].veinsmobility co2emission ETV
vector 442 SmartConeScenario.node[87].veinsmobility acceleration ETV
vector 443 SmartConeScenario.node[87].veinsmobility co2emission ETV
vector 444 SmartConeScenario.node[88].veinsmobility speed ETV
vector 445 SmartConeScenario.node[89].veinsmobility speed ETV
vector 446 SmartConeScenario.node[90].veinsmobility posx ETV
vector 447 SmartConeScenario.node[90].veinsmobility posy ETV
vector 448 SmartConeScenario.node[91].veinsmobility posx ETV
vector 449 SmartConeScenario.node[91].veinsmobility posy ETV
vector 450 SmartConeScenario.node[88].veinsmobility acceleration ETV
vector 451 SmartConeScenario.node[88].veinsmobility co2emission ETV
vector 452 SmartConeScenario.node[89].veinsmobility acceleration ETV
vector 453 SmartConeScenario.node[89].veinsmobility co2emission ETV
vector 454 SmartConeScenario.node[92].veinsmobility posx ETV
vector 455 SmartConeScenario.node[92].veinsmobility posy ETV
vector 456 SmartConeScenario.node[90].veinsmobility speed ETV
vector 457 SmartConeScenario.node[91].veinsmobility speed ETV
vector 458 SmartConeScenario.node[93].veinsmobility posx ETV
vector 459 SmartConeScenario.node[93].veinsmobility posy ETV
vector 460 SmartConeScenario.node[90].veinsmobility acceleration ETV
vector 461 SmartConeScenario.node[90].veinsmobility co2emission ETV
vector 462 SmartConeScenario.node[91].veinsmobility acceleration ETV
vector 463 SmartConeScenario.node[91].veinsmobility co2emission ETV
vector 464 SmartConeScenario.node[92].veinsmobility speed ETV
vector 465 SmartConeScenario.node[94].veinsmobility posx ETV
vector 466 SmartConeScenario.node[94].veinsmobility posy ETV
vector 467 SmartConeScenario.node[95].veinsmobility posx ETV
vector 468 SmartConeScenario.node[95].veinsmobility posy ETV
vector 469 SmartConeScenario.node[92].veinsmobility acceleration ETV
vector 470 SmartConeScenario.node[92].veinsmobility co2emission ETV
vector 471 SmartConeScenario.node[93].veinsmobility speed ETV
vector 472 SmartConeScenario.node[93].veinsmobility acceleration ETV
vector 473 SmartConeScenario.node[93].veinsmobility co2emission ETV
vector 474 SmartConeScenario.node[94].veinsmobility speed ETV
vector 475 SmartConeScenario.node[95].veinsmobility speed ETV
vector 476 SmartConeScenario.node[96].veinsmobility posx ETV
vector 477 SmartConeScenario.node[96].veinsmobility posy ETV
vector 478 SmartConeScenario.node[97].veinsmobility posx ETV
vector 479 SmartConeScenario.node[97].veinsmobility posy ETV
vector 480 SmartConeScenario.node[94].veinsmobility acceleration ETV
vector 481 SmartConeScenario.node[94].veinsmobility co2emission ETV
vector 482 SmartConeScenario.node[95].veinsmobility acceleration ETV
vector 483 SmartConeScenario.node[95].veinsmobility co2emission ETV
vector 484 SmartConeScenario.node[96].veinsmobility speed ETV
vector 485 SmartConeScenario.node[97].veinsmobility speed ETV
vector 486 SmartConeScenario.node[98].veinsmobility posx ETV
vector 487 SmartConeScenario.node[98].veinsmobility posy ETV
vector 488 SmartConeScenario.node[99].veinsmobility posx ETV
vector 489 SmartConeScenario.node[99].veinsmobility posy ETV
vector 490 SmartConeScenario.node[96].veinsmobility acceleration ETV
vector 491 SmartConeScenario.node[96].veinsmobility co2emission ETV
vector 492 SmartConeScenario.node[97].veinsmobility acceleration ETV
vector 493 SmartConeScenario.node[97].veinsmobility co2emission ETV
vector 494 SmartConeScenario.node[98].veinsmobility speed ETV
vector 495 SmartConeScenario.node[99].veinsmobility speed ETV
vector 496 SmartConeScenario.node[100].veinsmobility posx ETV
vector 497 SmartConeScenario.node[100].veinsmobility posy ETV
vector 498 SmartConeScenario.node[101].veinsmobility posx ETV
vector 499 SmartConeScenario.node[101].veinsmobility posy ETV
vector 500 SmartConeScenario.node[98].veinsmobility acceleration ETV
vector 501 SmartConeScenario.node[98].veinsmobility co2emission ETV
vector 502 SmartConeScenario.node[99].veinsmobility acceleration ETV
vector 503 SmartConeScenario.node[99].veinsmobility co2emission ETV
vector 504 SmartConeScenario.node[102].veinsmobility posx ETV
vector 505 SmartConeScenario.node[102].veinsmobility posy ETV
vector 506 SmartConeScenario.node[103].veinsmobility posx ETV
vector 507 SmartConeScenario.node[103].veinsmobility posy ETV
vector 508 SmartConeScenario.node[100].veinsmobility speed ETV
vector 509 SmartConeScenario.node[101].veinsmobility speed ETV
vector 510 SmartConeScenario.node[100].veinsmobility acceleration ETV
vector 511 SmartConeScenario.node[100].veinsmobility co2emission ETV
vector 512 SmartConeScenario.node[101].veinsmobility acceleration ETV
vector 513 SmartConeScenario.node[101].veinsmobility co2emission ETV
vector 514 SmartConeScenario.node[102].veinsmobility speed ETV
vector 515 SmartConeScenario.node[103].veinsmobility speed ETV
vector 516 SmartConeScenario.node[104].veinsmobility posx ETV
vector 517 SmartConeScenario.node[104].veinsmobility posy ETV
vector 518 SmartConeScenario.node[105].veinsmobility posx ETV
vector 519 SmartConeScenario.node[105].veinsmobility posy ETV
vector 520 SmartConeScenario.node[102].veinsmobility acceleration ETV
vector 521 SmartConeScenario.node[102].veinsmobility co2emission ETV
vector 522 SmartConeScenario.node[103].veinsmobility acceleration ETV
vector 523 SmartConeScenario.node[103].veinsmobility co2emission ETV
vector 524 SmartConeScenario.node[104].veinsmobility speed ETV
vector 525 SmartConeScenario.node[105].veinsmobility speed ETV
vector 526 SmartConeScenario.node[106].veinsmobility posx ETV
vector 527 SmartConeScenario.node[106].veinsmobility posy ETV
vector 528 SmartConeScenario.node[107].veinsmobility posx ETV
vector 529 SmartConeScenario.node[107].veinsmobility posy ETV
vector 530 SmartConeScenario.node[104].veinsmobility acceleration ETV
vector 531 SmartConeScenario.node[104].veinsmobility co2emission ETV
vector 532 SmartConeScenario.node[105].veinsmobility acceleration ETV
vector 533 SmartConeScenario.node[105].veinsmobility co2emission ETV
vector 534 SmartConeScenario.node[106].veinsmobility speed ETV
vector 535 SmartConeScenario.node[107].veinsmobility speed ETV
vector 536 SmartConeScenario.node[108].veinsmobility posx ETV
vector 537 SmartConeScenario.node[108].veinsmobility posy ETV
vector 538 SmartConeScenario.node[109].veinsmobility posx ETV
vector 539 SmartConeScenario.node[109].veinsmobility posy ETV
vector 540 SmartConeScenario.node[106].veinsmobility acceleration ETV
vector 541 SmartConeScenario.node[106].veinsmobility co2emission ETV
vector 542 SmartConeScenario.node[107].veinsmobility acceleration ETV
vector 543 SmartConeScenario.node[107].veinsmobility co2emission ETV
vector 544 SmartConeScenario.node[108].veinsmobility speed ETV
vector 545 SmartConeScenario.node[109].veinsmobility speed ETV
vector 546 SmartConeScenario.node[110].veinsmobility posx ETV
vector 547 SmartConeScenario.node[110].veinsmobility posy ETV
vector 548 SmartConeScenario.node[111].veinsmobility posx ETV
vector 549 SmartConeScenario.node[111].veinsmobility posy ETV
vector 550 SmartConeScenario.node[108].veinsmobility acceleration ETV
vector 551 SmartConeScenario.node[108].veinsmobility co2emission ETV
vector 552 SmartConeScenario.node[109].veinsmobility acceleration ETV
vector 553 SmartConeScenario.node[109].veinsmobility co2emission ETV
vector 554 SmartConeScenario.node[112].veinsmobility posx ETV
vector 555 SmartConeScenario.node[112].veinsmobility posy ETV
vector 556 SmartConeScenario.node[110].veinsmobility speed ETV
vector 557 SmartConeScenario.node[111].veinsmobility speed ETV
vector 558 SmartConeScenario.node[113].veinsmobility posx ETV
vector 559 SmartConeScenario.node[113].veinsmobility posy ETV
vector 560 SmartConeScenario.node[110].veinsmobility acceleration ETV
vector 561 SmartConeScenario.node[110].veinsmobility co2emission ETV
vector 562 SmartConeScenario.node[111].veinsmobility acceleration ETV
vector 563 SmartConeScenario.node[111].veinsmobility co2emission ETV
vector 564 SmartConeScenario.node[112].veinsmobility speed ETV
vector 565 SmartConeScenario.node[114].veinsmobility posx ETV
vector 566 SmartConeScenario.node[114].veinsmobility posy ETV
vector 567 SmartConeScenario.node[115].veinsmobility posx ETV
vector 568 SmartConeScenario.node[115].veinsmobility posy ETV
vector 569 SmartConeScenario.node[112].veinsmobility acceleration ETV
vector 570 SmartConeScenario.node[112].veinsmobility co2emission ETV
vector 571 SmartConeScenario.node[113].veinsmobility speed ETV
vector 572 SmartConeScenario.node[113].veinsmobility acceleration ETV
vector 573 SmartConeScenario.node[113].veinsmobility co2emission ETV
vector 574 SmartConeScenario.node[114].veinsmobility speed ETV
vector 575 SmartConeScenario.node[115].veinsmobility speed ETV
vector 576 SmartConeScenario.node[116].veinsmobility posx ETV
vector 577 SmartConeScenario.node[116].veinsmobility posy ETV
vector 578 SmartConeScenario.node[117].veinsmobility posx ETV
vector 579 SmartConeScenario.node[117].veinsmobility posy ETV
vector 580 SmartConeScenario.node[114].veinsmobility acceleration ETV
vector 581 SmartConeScenario.node[114].veinsmobility co2emission ETV
vector 582 SmartConeScenario.node[115].veinsmobility acceleration ETV
vector 583 SmartConeScenario.node[115].veinsmobility co2emission ETV
vector 584 SmartConeScenario.node[116].veinsmobility speed ETV
vector 585 SmartConeScenario.node[117].veinsmobility speed ETV
vector 586 SmartConeScenario.node[118].veinsmobility posx ETV
vector 587 SmartConeScenario.node[118].veinsmobility posy ETV
vector 588 SmartConeScenario.node[119].veinsmobility posx ETV
vector 589 SmartConeScenario.node[119].veinsmobility posy ETV
vector 590 SmartConeScenario.node[116].veinsmobility acceleration ETV
vector 591 SmartConeScenario.node[116].veinsmobility co2emission ETV
vector 592 SmartConeScenario.node[117].veinsmobility acceleration ETV
vector 593 SmartConeScenario.node[117].veinsmobility co2emission ETV
vector 594 SmartConeScenario.node[118].veinsmobility speed ETV
vector 595 SmartConeScenario.node[119].veinsmobility speed ETV
vector 596 SmartConeScenario.node[120].veinsmobility posx ETV
vector 597 SmartConeScenario.node[120].veinsmobility posy ETV
vector 598 SmartConeScenario.node[121].veinsmobility posx ETV
vector 599 SmartConeScenario.node[121].veinsmobility posy ETV
vector 600 SmartConeScenario.node[118].veinsmobility acceleration ETV
vector 601 SmartConeScenario.node[118].veinsmobility co2emission ETV
vector 602 SmartConeScenario.node[119].veinsmobility acceleration ETV
vector 603 SmartConeScenario.node[119].veinsmobility co2emission ETV
vector 604 SmartConeScenario.node[122].veinsmobility posx ETV
vector 605 SmartConeScenario.node[122].veinsmobility posy ETV
vector 606 SmartConeScenario.node[123].veinsmobility posx ETV
vector 607 SmartConeScenario.node[123].veinsmobility posy ETV
vector 608 SmartConeScenario.node[120].veinsmobility speed ETV
vector 609 SmartConeScenario.node[121].veinsmobility speed ETV
vector 610 SmartConeScenario.node[120].veinsmobility acceleration ETV
vector 611 SmartConeScenario.node[120].veinsmobility co2emission ETV
vector 612 SmartConeScenario.node[121].veinsmobility acceleration ETV
vector 613 SmartConeScenario.node[121].veinsmobility co2emission ETV
vector 614 SmartConeScenario.node[122].veinsmobility speed ETV
vector 615 SmartConeScenario.node[123].veinsmobility speed ETV
vector 616 SmartConeScenario.node[124].veinsmobility posx ETV
vector 617 SmartConeScenario.node[124].veinsmobility posy ETV
vector 618 SmartConeScenario.node[125].veinsmobility posx ETV
vector 619 SmartConeScenario.node[125].veinsmobility posy ETV
vector 620 SmartConeScenario.node[122].veinsmobility acceleration ETV
vector 621 SmartConeScenario.node[122].veinsmobility co2emission ETV
vector 622 SmartConeScenario.node[123].veinsmobility acceleration ETV
vector 623 SmartConeScenario.node[123].veinsmobility co2emission ETV
vector 624 SmartConeScenario.node[124].veinsmobility speed ETV
vector 625 SmartConeScenario.node[125].veinsmobility speed ETV
vector 626 SmartConeScenario.node[126].veinsmobility posx ETV
vector 627 SmartConeScenario.node[126].veinsmobility posy ETV
vector 628 SmartConeScenario.node[127].veinsmobility posx ETV
vector 629 SmartConeScenario.node[127].veinsmobility posy ETV
vector 630 SmartConeScenario.node[124].veinsmobility acceleration ETV
vector 631 SmartConeScenario.node[124].veinsmobility co2emission ETV
vector 632 SmartConeScenario.node[125].veinsmobility acceleration ETV
vector 633 SmartConeScenario.node[125].veinsmobility co2emission ETV
vector 634 SmartConeScenario.node[126].veinsmobility speed ETV
vector 635 SmartConeScenario.node[127].veinsmobility speed ETV
vector 636 SmartConeScenario.node[128].veinsmobility posx ETV
vector 637 SmartConeScenario.node[128].veinsmobility posy ETV
vector 638 SmartConeScenario.node[129].veinsmobility posx ETV
vector 639 SmartConeScenario.node[129].veinsmobility posy ETV
vector 640 SmartConeScenario.node[126].veinsmobility acceleration ETV
vector 641 SmartConeScenario.node[126].veinsmobility co2emission ETV
vector 642 SmartConeScenario.node[127].veinsmobility acceleration ETV
vector 643 SmartConeScenario.node[127].veinsmobility co2emission ETV
vector 644 SmartConeScenario.node[128].veinsmobility speed ETV
vector 645 SmartConeScenario.node[129].veinsmobility speed ETV
vector 646 SmartConeScenario.node[130].veinsmobility posx ETV
vector 647 SmartConeScenario.node[130].veinsmobility posy ETV
vector 648 SmartConeScenario.node[131].veinsmobility posx ETV
vector 649 SmartConeScenario.node[131].veinsmobility posy ETV
vector 650 SmartConeScenario.node[128].veinsmobility acceleration ETV
vector 651 SmartConeScenario.node[128].veinsmobility co2emission ETV
vector 652 SmartConeScenario.node[129].veinsmobility acceleration ETV
vector 653 SmartConeScenario.node[129].veinsmobility co2emission ETV
vector 654 SmartConeScenario.node[132].veinsmobility posx ETV
vector 655 SmartConeScenario.node[132].veinsmobility posy ETV
vector 656 SmartConeScenario.node[133].veinsmobility posx ETV
vector 657 SmartConeScenario.node[133].veinsmobility posy ETV
vector 658 SmartConeScenario.node[130].veinsmobility speed ETV
vector 659 SmartConeScenario.node[131].veinsmobility speed ETV
vector 660 SmartConeScenario.node[130].veinsmobility acceleration ETV
vector 661 SmartConeScenario.node[130].veinsmobility co2emission ETV
vector 662 SmartConeScenario.node[131].veinsmobility acceleration ETV
vector 663 SmartConeScenario.node[131].veinsmobility co2emission ETV
vector 664 SmartConeScenario.node[132].veinsmobility speed ETV
vector 665 SmartConeScenario.node[133].veinsmobility speed ETV
vector 666 SmartConeScenario.node[134].veinsmobility posx ETV
vector 667 SmartConeScenario.node[134].veinsmobility posy ETV
vector 668 SmartConeScenario.node[135].veinsmobility posx ETV
vector 669 SmartConeScenario.node[135].veinsmobility posy ETV
vector 670 SmartConeScenario.node[132].veinsmobility acceleration ETV
vector 671 SmartConeScenario.node[132].veinsmobility co2emission ETV
vector 672 SmartConeScenario.node[133].veinsmobility acceleration ETV
vector 673 SmartConeScenario.node[133].veinsmobility co2emission ETV
vector 674 SmartConeScenario.node[134].veinsmobility speed ETV
vector 675 SmartConeScenario.node[135].veinsmobility speed ETV
vector 676 SmartConeScenario.node[136].veinsmobility posx ETV
vector 677 SmartConeScenario.node[136].veinsmobility posy ETV
vector 678 SmartConeScenario.node[137].veinsmobility posx ETV
vector 679 SmartConeScenario.node[137].veinsmobility posy ETV
vector 680 SmartConeScenario.node[134].veinsmobility acceleration ETV
vector 681 SmartConeScenario.node[134].veinsmobility co2emission ETV
vector 682 SmartConeScenario.node[135].veinsmobility acceleration ETV
vector 683 SmartConeScenario.node[135].veinsmobility co2emission ETV
vector 684 SmartConeScenario.node[136].veinsmobility speed ETV
vector 685 SmartConeScenario.node[137].veinsmobility speed ETV
vector 686 SmartConeScenario.node[138].veinsmobility posx ETV
vector 687 SmartConeScenario.node[138].veinsmobility posy ETV
vector 688 SmartConeScenario.node[139].veinsmobility posx ETV
vector 689 SmartConeScenario.node[139].veinsmobility posy ETV
vector 690 SmartConeScenario.node[136].veinsmobility acceleration ETV
vector 691 SmartConeScenario.node[136].veinsmobility co2emission ETV
vector 692 SmartConeScenario.node[137].veinsmobility acceleration ETV
vector 693 SmartConeScenario.node[137].veinsmobility co2emission ETV
vector 694 SmartConeScenario.node[138].veinsmobility speed ETV
vector 695 SmartConeScenario.node[139].veinsmobility speed ETV
vector 696 SmartConeScenario.node[140].veinsmobility posx ETV
vector 697 SmartConeScenario.node[140].veinsmobility posy ETV
vector 698 SmartConeScenario.node[141].veinsmobility posx ETV
vector 699 SmartConeScenario.node[141].veinsmobility posy ETV
vector 700 SmartConeScenario.node[138].veinsmobility acceleration ETV
vector 701 SmartConeScenario.node[138].veinsmobility co2emission ETV
vector 702 SmartConeScenario.node[139].veinsmobility acceleration ETV
vector 703 SmartConeScenario.node[139].veinsmobility co2emission ETV
vector 704 SmartConeScenario.node[142].veinsmobility posx ETV
vector 705 SmartConeScenario.node[142].veinsmobility posy ETV
vector 706 SmartConeScenario.node[143].veinsmobility posx ETV
vector 707 SmartConeScenario.node[143].veinsmobility posy ETV
vector 708 SmartConeScenario.node[140].veinsmobility speed ETV
vector 709 SmartConeScenario.node[141].veinsmobility speed ETV
vector 710 SmartConeScenario.node[140].veinsmobility acceleration ETV
vector 711 SmartConeScenario.node[140].veinsmobility co2emission ETV
vector 712 SmartConeScenario.node[141].veinsmobility acceleration ETV
vector 713 SmartConeScenario.node[141].veinsmobility co2emission ETV
vector 714 SmartConeScenario.node[142].veinsmobility speed ETV
vector 715 SmartConeScenario.node[143].veinsmobility speed ETV
vector 716 SmartConeScenario.node[144].veinsmobility posx ETV
vector 717 SmartConeScenario.node[144].veinsmobility posy ETV
vector 718 SmartConeScenario.node[145].veinsmobility posx ETV
vector 719 SmartConeScenario.node[145].veinsmobility posy ETV
vector 720 SmartConeScenario.node[142].veinsmobility acceleration ETV
vector 721 SmartConeScenario.node[142].veinsmobility co2emission ETV
vector 722 SmartConeScenario.node[143].veinsmobility acceleration ETV
vector 723 SmartConeScenario.node[143].veinsmobility co2emission ETV
vector 724 SmartConeScenario.node[144].veinsmobility speed ETV
vector 725 SmartConeScenario.node[145].veinsmobility speed ETV
vector 726 SmartConeScenario.node[146].veinsmobility posx ETV
vector 727 SmartConeScenario.node[146].veinsmobility posy ETV
vector 728 SmartConeScenario.node[147].veinsmobility posx ETV
vector 729 SmartConeScenario.node[147].veinsmobility posy ETV
vector 730 SmartConeScenario.node[144].veinsmobility acceleration ETV
vector 731 SmartConeScenario.node[144].veinsmobility co2emission ETV
vector 732 SmartConeScenario.node[145].veinsmobility acceleration ETV
vector 733 SmartConeScenario.node[145].veinsmobility co2emission ETV
vector 734 SmartConeScenario.node[146].veinsmobility speed ETV
vector 735 SmartConeScenario.node[147].veinsmobility speed ETV
vector 736 SmartConeScenario.node[148].veinsmobility posx ETV
vector 737 SmartConeScenario.node[148].veinsmobility posy ETV
vector 738 SmartConeScenario.node[149].veinsmobility posx ETV
vector 739 SmartConeScenario.node[149].veinsmobility posy ETV
vector 740 SmartConeScenario.node[146].veinsmobility acceleration ETV
vector 741 SmartConeScenario.node[146].veinsmobility co2emission ETV
vector 742 SmartConeScenario.node[147].veinsmobility acceleration ETV
vector 743 SmartConeScenario.node[147].veinsmobility co2emission ETV
vector 744 SmartConeScenario.node[148].veinsmobility speed ETV
vector 745 SmartConeScenario.node[149].veinsmobility speed ETV
vector 746 SmartConeScenario.node[150].veinsmobility posx ETV
vector 747 SmartConeScenario.node[150].veinsmobility posy ETV
vector 748 SmartConeScenario.node[151].veinsmobility posx ETV
vector 749 SmartConeScenario.node[151].veinsmobility posy ETV
vector 750 SmartConeScenario.node[148].veinsmobility acceleration ETV
vector 751 SmartConeScenario.node[148].veinsmobility co2emission ETV
vector 752 SmartConeScenario.node[149].veinsmobility acceleration ETV
vector 753 SmartConeScenario.node[149].veinsmobility co2emission ETV
vector 754 SmartConeScenario.node[152].veinsmobility posx ETV
vector 755 SmartConeScenario.node[152].veinsmobility posy ETV
vector 756 SmartConeScenario.node[153].veinsmobility posx ETV
vector 757 SmartConeScenario.node[153].veinsmobility posy ETV
vector 758 SmartConeScenario.node[150].veinsmobility speed ETV
vector 759 SmartConeScenario.node[151].veinsmobility speed ETV
vector 760 SmartConeScenario.node[150].veinsmobility acceleration ETV
vector 761 SmartConeScenario.node[150].veinsmobility co2emission ETV
vector 762 SmartConeScenario.node[151].veinsmobility acceleration ETV
vector 763 SmartConeScenario.node[151].veinsmobility co2emission ETV
vector 764 SmartConeScenario.node[152].veinsmobility speed ETV
vector 765 SmartConeScenario.node[153].veinsmobility speed ETV
vector 766 SmartConeScenario.node[154].veinsmobility posx ETV
vector 767 SmartConeScenario.node[154].veinsmobility posy ETV
vector 768 SmartConeScenario.node[152].veinsmobility acceleration ETV
vector 769 SmartConeScenario.node[152].veinsmobility co2emission ETV
vector 770 SmartConeScenario.node[153].veinsmobility acceleration ETV
vector 771 SmartConeScenario.node[153].veinsmobility co2emission ETV
vector 772 SmartConeScenario.node[155].veinsmobility posx ETV
vector 773 SmartConeScenario.node[155].veinsmobility posy ETV
vector 774 SmartConeScenario.node[154].veinsmobility speed ETV
vector 775 SmartConeScenario.node[156].veinsmobility posx ETV
vector 776 SmartConeScenario.node[156].veinsmobility posy ETV
vector 777 SmartConeScenario.node[157].veinsmobility posx ETV
vector 778 SmartConeScenario.node[157].veinsmobility posy ETV
vector 779 SmartConeScenario.node[154].veinsmobility acceleration ETV
vector 780 SmartConeScenario.node[154].veinsmobility co2emission ETV
vector 781 SmartConeScenario.node[155].veinsmobility speed ETV
vector 782 SmartConeScenario.node[155].veinsmobility acceleration ETV
vector 783 SmartConeScenario.node[155].veinsmobility co2emission ETV
vector 784 SmartConeScenario.node[156].veinsmobility speed ETV
vector 785 SmartConeScenario.node[157].veinsmobility speed ETV
vector 786 SmartConeScenario.node[158].veinsmobility posx ETV
vector 787 SmartConeScenario.node[158].veinsmobility posy ETV
vector 788 SmartConeScenario.node[159].veinsmobility posx ETV
vector 789 SmartConeScenario.node[159].veinsmobility posy ETV
vector 790 SmartConeScenario.node[156].veinsmobility acceleration ETV
vector 791 SmartConeScenario.node[156].veinsmobility co2emission ETV
vector 792 SmartConeScenario.node[157].veinsmobility acceleration ETV
vector 793 SmartConeScenario.node[157].veinsmobility co2emission ETV
vector 794 SmartConeScenario.node[158].veinsmobility speed ETV
vector 795 SmartConeScenario.node[159].veinsmobility speed ETV
vector 796 SmartConeScenario.node[160].veinsmobility posx ETV
vector 797 SmartConeScenario.node[160].veinsmobility posy ETV
vector 798 SmartConeScenario.node[161].veinsmobility posx ETV
vector 799 SmartConeScenario.node[161].veinsmobility posy ETV
vector 800 SmartConeScenario.node[158].veinsmobility acceleration ETV
vector 801 SmartConeScenario.node[158].veinsmobility co2emission ETV
vector 802 SmartConeScenario.node[159].veinsmobility acceleration ETV
vector 803 SmartConeScenario.node[159].veinsmobility co2emission ETV
vector 804 SmartConeScenario.node[162].veinsmobility posx ETV
vector 805 SmartConeScenario.node[162].veinsmobility posy ETV
vector 806 SmartConeScenario.node[163].veinsmobility posx ETV
vector 807 SmartConeScenario.node[163].veinsmobility posy ETV
vector 808 SmartConeScenario.node[160].veinsmobility speed ETV
vector 809 SmartConeScenario.node[161].veinsmobility speed ETV
vector 810 SmartConeScenario.node[160].veinsmobility acceleration ETV
vector 811 SmartConeScenario.node[160].veinsmobility co2emission ETV
vector 812 SmartConeScenario.node[161].veinsmobility acceleration ETV
vector 813 SmartConeScenario.node[161].veinsmobility co2emission ETV
vector 814 SmartConeScenario.node[162].veinsmobility speed ETV
vector 815 SmartConeScenario.node[163].veinsmobility speed ETV
vector 816 SmartConeScenario.node[164].veinsmobility posx ETV
vector 817 SmartConeScenario.node[164].veinsmobility posy ETV
vector 818 SmartConeScenario.node[165].veinsmobility posx ETV
vector 819 SmartConeScenario.node[165].veinsmobility posy ETV
vector 820 SmartConeScenario.node[162].veinsmobility acceleration ETV
vector 821 SmartConeScenario.node[162].veinsmobility co2emission ETV
vector 822 SmartConeScenario.node[163].veinsmobility acceleration ETV
vector 823 SmartConeScenario.node[163].veinsmobility co2emission ETV
vector 824 SmartConeScenario.node[164].veinsmobility speed ETV
vector 825 SmartConeScenario.node[165].veinsmobility speed ETV
vector 826 SmartConeScenario.node[166].veinsmobility posx ETV
vector 827 SmartConeScenario.node[166].veinsmobility posy ETV
vector 828 SmartConeScenario.node[167].veinsmobility posx ETV
vector 829 SmartConeScenario.node[167].veinsmobility posy ETV
vector 830 SmartConeScenario.node[164].veinsmobility acceleration ETV
vector 831 SmartConeScenario.node[164].veinsmobility co2emission ETV
vector 832 SmartConeScenario.node[165].veinsmobility acceleration ETV
vector 833 SmartConeScenario.node[165].veinsmobility co2emission ETV
vector 834 SmartConeScenario.node[166].veinsmobility speed ETV
vector 835 SmartConeScenario.node[167].veinsmobility speed ETV
vector 836 SmartConeScenario.node[168].veinsmobility posx ETV
vector 837 SmartConeScenario.node[168].veinsmobility posy ETV
vector 838 SmartConeScenario.node[169].veinsmobility posx ETV
vector 839 SmartConeScenario.node[169].veinsmobility posy ETV
vector 840 SmartConeScenario.node[166].veinsmobility acceleration ETV
vector 841 SmartConeScenario.node[166].veinsmobility co2emission ETV
vector 842 SmartConeScenario.node[167].veinsmobility acceleration ETV
vector 843 SmartConeScenario.node[167].veinsmobility co2emission ETV
vector 844 SmartConeScenario.node[168].veinsmobility speed ETV
vector 845 SmartConeScenario.node[169].veinsmobility speed ETV
vector 846 SmartConeScenario.node[170].veinsmobility posx ETV
vector 847 SmartConeScenario.node[170].veinsmobility posy ETV
vector 848 SmartConeScenario.node[171].veinsmobility posx ETV
vector 849 SmartConeScenario.node[171].veinsmobility posy ETV
vector 850 SmartConeScenario.node[168].veinsmobility acceleration ETV
vector 851 SmartConeScenario.node[168].veinsmobility co2emission ETV
vector 852 SmartConeScenario.node[169].veinsmobility acceleration ETV
vector 853 SmartConeScenario.node[169].veinsmobility co2emission ETV
vector 854 SmartConeScenario.node[172].veinsmobility posx ETV
vector 855 SmartConeScenario.node[172].veinsmobility posy ETV
vector 856 SmartConeScenario.node[173].veinsmobility posx ETV
vector 857 SmartConeScenario.node[173].veinsmobility posy ETV
vector 858 SmartConeScenario.node[170].veinsmobility speed ETV
vector 859 SmartConeScenario.node[171].veinsmobility speed ETV
vector 860 SmartConeScenario.node[170].veinsmobility acceleration ETV
vector 861 SmartConeScenario.node[170].veinsmobility co2emission ETV
vector 862 SmartConeScenario.node[171].veinsmobility acceleration ETV
vector 863 SmartConeScenario.node[171].veinsmobility co2emission ETV
vector 864 SmartConeScenario.node[172].veinsmobility speed ETV
vector 865 SmartConeScenario.node[173].veinsmobility speed ETV
vector 866 SmartConeScenario.node[174].veinsmobility posx ETV
vector 867 SmartConeScenario.node[174].veinsmobility posy ETV
vector 868 SmartConeScenario.node[172].veinsmobility acceleration ETV
vector 869 SmartConeScenario.node[172].veinsmobility co2emission ETV
vector 870 SmartConeScenario.node[173].veinsmobility acceleration ETV
vector 871 SmartConeScenario.node[173].veinsmobility co2emission ETV
vector 872 SmartConeScenario.node[175].veinsmobility posx ETV
vector 873 SmartConeScenario.node[175].veinsmobility posy ETV
vector 874 SmartConeScenario.node[174].veinsmobility speed ETV
vector 875 SmartConeScenario.node[176].veinsmobility posx ETV
vector 876 SmartConeScenario.node[176].veinsmobility posy ETV
vector 877 SmartConeScenario.node[177].veinsmobility posx ETV
vector 878 SmartConeScenario.node[177].veinsmobility posy ETV
vector 879 SmartConeScenario.node[174].veinsmobility acceleration ETV
vector 880 SmartConeScenario.node[174].veinsmobility co2emission ETV
vector 881 SmartConeScenario.node[175].veinsmobility speed ETV
vector 882 SmartConeScenario.node[175].veinsmobility acceleration ETV
vector 883 SmartConeScenario.node[175].veinsmobility co2emission ETV
vector 884 SmartConeScenario.node[176].veinsmobility speed ETV
vector 885 SmartConeScenario.node[177].veinsmobility speed ETV
vector 886 SmartConeScenario.node[178].veinsmobility posx ETV
vector 887 SmartConeScenario.node[178].veinsmobility posy ETV
vector 888 SmartConeScenario.node[179].veinsmobility posx ETV
vector 889 SmartConeScenario.node[179].veinsmobility posy ETV
vector 890 SmartConeScenario.node[176].veinsmobility acceleration ETV
vector 891 SmartConeScenario.node[176].veinsmobility co2emission ETV
vector 892 SmartConeScenario.node[177].veinsmobility acceleration ETV
vector 893 SmartConeScenario.node[177].veinsmobility co2emission ETV
vector 894 SmartConeScenario.node[178].veinsmobility speed ETV
vector 895 SmartConeScenario.node[179].veinsmobility speed ETV
vector 896 SmartConeScenario.node[180].veinsmobility posx ETV
vector 897 SmartConeScenario.node[180].veinsmobility posy ETV
vector 898 SmartConeScenario.node[181].veinsmobility posx ETV
vector 899 SmartConeScenario.node[181].veinsmobility posy ETV
vector 900 SmartConeScenario.node[178].veinsmobility acceleration ETV
vector 901 SmartConeScenario.node[178].veinsmobility co2emission ETV
vector 902 SmartConeScenario.node[179].veinsmobility acceleration ETV
vector 903 SmartConeScenario.node[179].veinsmobility co2emission ETV
vector 904 SmartConeScenario.node[182].veinsmobility posx ETV
vector 905 SmartConeScenario.node[182].veinsmobility posy ETV
vector 906 SmartConeScenario.node[183].veinsmobility posx ETV
vector 907 SmartConeScenario.node[183].veinsmobility posy ETV
vector 908 SmartConeScenario.node[180].veinsmobility speed ETV
vector 909 SmartConeScenario.node[181].veinsmobility speed ETV
vector 910 SmartConeScenario.node[180].veinsmobility acceleration ETV
vector 911 SmartConeScenario.node[180].veinsmobility co2emission ETV
vector 912 SmartConeScenario.node[181].veinsmobility acceleration ETV
vector 913 SmartConeScenario.node[181].veinsmobility co2emission ETV
vector 914 SmartConeScenario.node[182].veinsmobility speed ETV
vector 915 SmartConeScenario.node[183].veinsmobility speed ETV
vector 916 SmartConeScenario.node[184].veinsmobility posx ETV
vector 917 SmartConeScenario.node[184].veinsmobility posy ETV
vector 918 SmartConeScenario.node[182].veinsmobility acceleration ETV
vector 919 SmartConeScenario.node[182].veinsmobility co2emission ETV
vector 920 SmartConeScenario.node[183].veinsmobility acceleration ETV
vector 921 SmartConeScenario.node[183].veinsmobility co2emission ETV
vector 922 SmartConeScenario.node[185].veinsmobility posx ETV
vector 923 SmartConeScenario.node[185].veinsmobility posy ETV
vector 924 SmartConeScenario.node[184].veinsmobility speed ETV
vector 925 SmartConeScenario.node[186].veinsmobility posx ETV
vector 926 SmartConeScenario.node[186].veinsmobility posy ETV
vector 927 SmartConeScenario.node[187].veinsmobility posx ETV
vector 928 SmartConeScenario.node[187].veinsmobility posy ETV
vector 929 SmartConeScenario.node[184].veinsmobility acceleration ETV
vector 930 SmartConeScenario.node[184].veinsmobility co2emission ETV
vector 931 SmartConeScenario.node[185].veinsmobility speed ETV
vector 932 SmartConeScenario.node[185].veinsmobility acceleration ETV
vector 933 SmartConeScenario.node[185].veinsmobility co2emission ETV
vector 934 SmartConeScenario.node[186].veinsmobility speed ETV
vector 935 SmartConeScenario.node[187].veinsmobility speed ETV
vector 936 SmartConeScenario.node[188].veinsmobility posx ETV
vector 937 SmartConeScenario.node[188].veinsmobility posy ETV
vector 938 SmartConeScenario.node[189].veinsmobility posx ETV
vector 939 SmartConeScenario.node[189].veinsmobility posy ETV
vector 940 SmartConeScenario.node[186].veinsmobility acceleration ETV
vector 941 SmartConeScenario.node[186].veinsmobility co2emission ETV
vector 942 SmartConeScenario.node[187].veinsmobility acceleration ETV
vector 943 SmartConeScenario.node[187].veinsmobility co2emission ETV
vector 944 SmartConeScenario.node[188].veinsmobility speed ETV
vector 945 SmartConeScenario.node[189].veinsmobility speed ETV
vector 946 SmartConeScenario.node[190].veinsmobility posx ETV
vector 947 SmartConeScenario.node[190].veinsmobility posy ETV
vector 948 SmartConeScenario.node[191].veinsmobility posx ETV
vector 949 SmartConeScenario.node[191].veinsmobility posy ETV
vector 950 SmartConeScenario.node[188].veinsmobility acceleration ETV
vector 951 SmartConeScenario.node[188].veinsmobility co2emission ETV
vector 952 SmartConeScenario.node[189].veinsmobility acceleration ETV
vector 953 SmartConeScenario.node[189].veinsmobility co2emission ETV
vector 954 SmartConeScenario.node[192].veinsmobility posx ETV
vector 955 SmartConeScenario.node[192].veinsmobility posy ETV
vector 956 SmartConeScenario.node[193].veinsmobility posx ETV
vector 957 SmartConeScenario.node[193].veinsmobility posy ETV
vector 958 SmartConeScenario.node[190].veinsmobility speed ETV
vector 959 SmartConeScenario.node[191].veinsmobility speed ETV
vector 960 SmartConeScenario.node[190].veinsmobility acceleration ETV
vector 961 SmartConeScenario.node[190].veinsmobility co2emission ETV
vector 962 SmartConeScenario.node[191].veinsmobility acceleration ETV
vector 963 SmartConeScenario.node[191].veinsmobility co2emission ETV
vector 964 SmartConeScenario.node[192].veinsmobility speed ETV
vector 965 SmartConeScenario.node[193].veinsmobility speed ETV
vector 966 SmartConeScenario.node[194].veinsmobility posx ETV
vector 967 SmartConeScenario.node[194].veinsmobility posy ETV
vector 968 SmartConeScenario.node[195].veinsmobility posx ETV
vector 969 SmartConeScenario.node[195].veinsmobility posy ETV
vector 970 SmartConeScenario.node[192].veinsmobility acceleration ETV
vector 971 SmartConeScenario.node[192].veinsmobility co2emission ETV
vector 972 SmartConeScenario.node[193].veinsmobility acceleration ETV
vector 973 SmartConeScenario.node[193].veinsmobility co2emission ETV
vector 974 SmartConeScenario.node[194].veinsmobility speed ETV
vector 975 SmartConeScenario.node[195].veinsmobility speed ETV
vector 976 SmartConeScenario.node[196].veinsmobility posx ETV
vector 977 SmartConeScenario.node[196].veinsmobility posy ETV
vector 978 SmartConeScenario.node[197].veinsmobility posx ETV
vector 979 SmartConeScenario.node[197].veinsmobility posy ETV
vector 980 SmartConeScenario.node[194].veinsmobility acceleration ETV
vector 981 SmartConeScenario.node[194].veinsmobility co2emission ETV
vector 982 SmartConeScenario.node[195].veinsmobility acceleration ETV
vector 983 SmartConeScenario.node[195].veinsmobility co2emission ETV
vector 984 SmartConeScenario.node[196].veinsmobility speed ETV
vector 985 SmartConeScenario.node[197].veinsmobility speed ETV
vector 986 SmartConeScenario.node[198].veinsmobility posx ETV
vector 987 SmartConeScenario.node[198].veinsmobility posy ETV
vector 988 SmartConeScenario.node[199].veinsmobility posx ETV
vector 989 SmartConeScenario.node[199].veinsmobility posy ETV
vector 990 SmartConeScenario.node[196].veinsmobility acceleration ETV
vector 991 SmartConeScenario.node[196].veinsmobility co2emission ETV
vector 992 SmartConeScenario.node[197].veinsmobility acceleration ETV
vector 993 SmartConeScenario.node[197].veinsmobility co2emission ETV
vector 994 SmartConeScenario.node[198].veinsmobility speed ETV
vector 995 SmartConeScenario.node[199].veinsmobility speed ETV
vector 996 SmartConeScenario.node[200].veinsmobility posx ETV
vector 997 SmartConeScenario.node[200].veinsmobility posy ETV
vector 998 SmartConeScenario.node[201].veinsmobility posx ETV
vector 999 SmartConeScenario.node[201].veinsmobility posy ETV
vector 1000 SmartConeScenario.node[198].veinsmobility acceleration ETV
vector 1001 SmartConeScenario.node[198].veinsmobility co2emission ETV
vector 1002 SmartConeScenario.node[199].veinsmobility acceleration ETV
vector 1003 SmartConeScenario.node[199].veinsmobility co2emission ETV
vector 1004 SmartConeScenario.node[202].veinsmobility posx ETV
vector 1005 SmartConeScenario.node[202].veinsmobility posy ETV
vector 1006 SmartConeScenario.node[203].veinsmobility posx ETV
vector 1007 SmartConeScenario.node[203].veinsmobility posy ETV
vector 1008 SmartConeScenario.node[200].veinsmobility speed ETV
vector 1009 SmartConeScenario.node[201].veinsmobility speed ETV
vector 1010 SmartConeScenario.node[200].veinsmobility acceleration ETV
vector 1011 SmartConeScenario.node[200].veinsmobility co2emission ETV
vector 1012 SmartConeScenario.node[201].veinsmobility acceleration ETV
vector 1013 SmartConeScenario.node[201].veinsmobility co2emission ETV
vector 1014 SmartConeScenario.node[202].veinsmobility speed ETV
vector 1015 SmartConeScenario.node[203].veinsmobility speed ETV
vector 1016 SmartConeScenario.node[204].veinsmobility posx ETV
vector 1017 SmartConeScenario.node[204].veinsmobility posy ETV
vector 1018 SmartConeScenario.node[205].veinsmobility posx ETV
vector 1019 SmartConeScenario.node[205].veinsmobility posy ETV
vector 1020 SmartConeScenario.node[202].veinsmobility acceleration ETV
vector 1021 SmartConeScenario.node[202].veinsmobility co2emission ETV
vector 1022 SmartConeScenario.node[203].veinsmobility acceleration ETV
vector 1023 SmartConeScenario.node[203].veinsmobility co2emission ETV
vector 1024 SmartConeScenario.node[204].veinsmobility speed ETV
vector 1025 SmartConeScenario.node[205].veinsmobility speed ETV
vector 1026 SmartConeScenario.node[206].veinsmobility posx ETV
vector 1027 SmartConeScenario.node[206].veinsmobility posy ETV
vector 1028 SmartConeScenario.node[207].veinsmobility posx ETV
vector 1029 SmartConeScenario.node[207].veinsmobility posy ETV
vector 1030 SmartConeScenario.node[204].veinsmobility acceleration ETV
vector 1031 SmartConeScenario.node[204].veinsmobility co2emission ETV
vector 1032 SmartConeScenario.node[205].veinsmobility acceleration ETV
vector 1033 SmartConeScenario.node[205].veinsmobility co2emission ETV
vector 1034 SmartConeScenario.node[206].veinsmobility speed ETV
vector 1035 SmartConeScenario.node[207].veinsmobility speed ETV
vector 1036 SmartConeScenario.node[208].veinsmobility posx ETV
vector 1037 SmartConeScenario.node[208].veinsmobility posy ETV
vector 1038 SmartConeScenario.node[209].veinsmobility posx ETV
vector 1039 SmartConeScenario.node[209].veinsmobility posy ETV
vector 1040 SmartConeScenario.node[206].veinsmobility acceleration ETV
vector 1041 SmartConeScenario.node[206].veinsmobility co2emission ETV
vector 1042 SmartConeScenario.node[207].veinsmobility acceleration ETV
vector 1043 SmartConeScenario.node[207].veinsmobility co2emission ETV
vector 1044 SmartConeScenario.node[208].veinsmobility speed ETV
vector 1045 SmartConeScenario.node[209].veinsmobility speed ETV
vector 1046 SmartConeScenario.node[210].veinsmobility posx ETV
vector 1047 SmartConeScenario.node[210].veinsmobility posy ETV
vector 1048 SmartConeScenario.node[211].veinsmobility posx ETV
vector 1049 SmartConeScenario.node[211].veinsmobility posy ETV
vector 1050 SmartConeScenario.node[208].veinsmobility acceleration ETV
vector 1051 SmartConeScenario.node[208].veinsmobility co2emission ETV
vector 1052 SmartConeScenario.node[209].veinsmobility acceleration ETV
vector 1053 SmartConeScenario.node[209].veinsmobility co2emission ETV
vector 1054 SmartConeScenario.node[212].veinsmobility posx ETV
vector 1055 SmartConeScenario.node[212].veinsmobility posy ETV
vector 1056 SmartConeScenario.node[213].veinsmobility posx ETV
vector 1057 SmartConeScenario.node[213].veinsmobility posy ETV
vector 1058 SmartConeScenario.node[210].veinsmobility speed ETV
vector 1059 SmartConeScenario.node[211].veinsmobility speed ETV
vector 1060 SmartConeScenario.node[210].veinsmobility acceleration ETV
vector 1061 SmartConeScenario.node[210].veinsmobility co2emission ETV
vector 1062 SmartConeScenario.node[211].veinsmobility acceleration ETV
vector 1063 SmartConeScenario.node[211].veinsmobility co2emission ETV
vector 1064 SmartConeScenario.node[212].veinsmobility speed ETV
vector 1065 SmartConeScenario.node[213].veinsmobility speed ETV
vector 1066 SmartConeScenario.node[214].veinsmobility posx ETV
vector 1067 SmartConeScenario.node[214].veinsmobility posy ETV
vector 1068 SmartConeScenario.node[215].veinsmobility posx ETV
vector 1069 SmartConeScenario.node[215].veinsmobility posy ETV
vector 1070 SmartConeScenario.node[212].veinsmobility acceleration ETV
vector 1071 SmartConeScenario.node[212].veinsmobility co2emission ETV
vector 1072 SmartConeScenario.node[213].veinsmobility acceleration ETV
vector 1073 SmartConeScenario.node[213].veinsmobility co2emission ETV
vector 1074 SmartConeScenario.node[214].veinsmobility speed ETV
vector 1075 SmartConeScenario.node[215].veinsmobility speed ETV
vector 1076 SmartConeScenario.node[216].veinsmobility posx ETV
vector 1077 SmartConeScenario.node[216].veinsmobility posy ETV
vector 1078 SmartConeScenario.node[214].veinsmobility acceleration ETV
vector 1079 SmartConeScenario.node[214].veinsmobility co2emission ETV
vector 1080 SmartConeScenario.node[215].veinsmobility acceleration ETV
vector 1081 SmartConeScenario.node[215].veinsmobility co2emission ETV
vector 1082 SmartConeScenario.node[217].veinsmobility posx ETV
vector 1083 SmartConeScenario.node[217].veinsmobility posy ETV
vector 1084 SmartConeScenario.node[216].veinsmobility speed ETV
vector 1085 SmartConeScenario.node[218].veinsmobility posx ETV
vector 1086 SmartConeScenario.node[218].veinsmobility posy ETV
vector 1087 SmartConeScenario.node[219].veinsmobility posx ETV
vector 1088 SmartConeScenario.node[219].veinsmobility posy ETV
vector 1089 SmartConeScenario.node[216].veinsmobility acceleration ETV
vector 1090 SmartConeScenario.node[216].veinsmobility co2emission ETV
vector 1091 SmartConeScenario.node[217].veinsmobility speed ETV
vector 1092 SmartConeScenario.node[217].veinsmobility acceleration ETV
vector 1093 SmartConeScenario.node[217].veinsmobility co2emission ETV
vector 1094 SmartConeScenario.node[218].veinsmobility speed ETV
vector 1095 SmartConeScenario.node[219].veinsmobility speed ETV
vector 1096 SmartConeScenario.node[220].veinsmobility posx ETV
vector 1097 SmartConeScenario.node[220].veinsmobility posy ETV
vector 1098 SmartConeScenario.node[221].veinsmobility posx ETV
vector 1099 SmartConeScenario.node[221].veinsmobility posy ETV
vector 1100 SmartConeScenario.node[218].veinsmobility acceleration ETV
vector 1101 SmartConeScenario.node[218].veinsmobility co2emission ETV
vector 1102 SmartConeScenario.node[219].veinsmobility acceleration ETV
vector 1103 SmartConeScenario.node[219].veinsmobility co2emission ETV
vector 1104 SmartConeScenario.node[222].veinsmobility posx ETV
vector 1105 SmartConeScenario.node[222].veinsmobility posy ETV
vector 1106 SmartConeScenario.node[223].veinsmobility posx ETV
vector 1107 SmartConeScenario.node[223].veinsmobility posy ETV
vector 1108 SmartConeScenario.node[220].veinsmobility speed ETV
vector 1109 SmartConeScenario.node[221].veinsmobility speed ETV
vector 1110 SmartConeScenario.node[220].veinsmobility acceleration ETV
vector 1111 SmartConeScenario.node[220].veinsmobility co2emission ETV
vector 1112 SmartConeScenario.node[221].veinsmobility acceleration ETV
vector 1113 SmartConeScenario.node[221].veinsmobility co2emission ETV
vector 1114 SmartConeScenario.node[222].veinsmobility speed ETV
vector 1115 SmartConeScenario.node[223].veinsmobility speed ETV
vector 1116 SmartConeScenario.node[224].veinsmobility posx ETV
vector 1117 SmartConeScenario.node[224].veinsmobility posy ETV
vector 1118 SmartConeScenario.node[225].veinsmobility posx ETV
vector 1119 SmartConeScenario.node[225].veinsmobility posy ETV
vector 1120 SmartConeScenario.node[222].veinsmobility acceleration ETV
vector 1121 SmartConeScenario.node[222].veinsmobility co2emission ETV
vector 1122 SmartConeScenario.node[223].veinsmobility acceleration ETV
vector 1123 SmartConeScenario.node[223].veinsmobility co2emission ETV
vector 1124 SmartConeScenario.node[224].veinsmobility speed ETV
vector 1125 SmartConeScenario.node[225].veinsmobility speed ETV
vector 1126 SmartConeScenario.node[226].veinsmobility posx ETV
vector 1127 SmartConeScenario.node[226].veinsmobility posy ETV
vector 1128 SmartConeScenario.node[227].veinsmobility posx ETV
vector 1129 SmartConeScenario.node[227].veinsmobility posy ETV
vector 1130 SmartConeScenario.node[224].veinsmobility acceleration ETV
vector 1131 SmartConeScenario.node[224].veinsmobility co2emission ETV
vector 1132 SmartConeScenario.node[225].veinsmobility acceleration ETV
vector 1133 SmartConeScenario.node[225].veinsmobility co2emission ETV
vector 1134 SmartConeScenario.node[226].veinsmobility speed ETV
vector 1135 SmartConeScenario.node[227].veinsmobility speed ETV
vector 1136 SmartConeScenario.node[228].veinsmobility posx ETV
vector 1137 SmartConeScenario.node[228].veinsmobility posy ETV
vector 1138 SmartConeScenario.node[229].veinsmobility posx ETV
vector 1139 SmartConeScenario.node[229].veinsmobility posy ETV
vector 1140 SmartConeScenario.node[226].veinsmobility acceleration ETV
vector 1141 SmartConeScenario.node[226].veinsmobility co2emission ETV
vector 1142 SmartConeScenario.node[227].veinsmobility acceleration ETV
vector 1143 SmartConeScenario.node[227].veinsmobility co2emission ETV
vector 1144 SmartConeScenario.node[228].veinsmobility speed ETV
vector 1145 SmartConeScenario.node[229].veinsmobility speed ETV
vector 1146 SmartConeScenario.node[230].veinsmobility posx ETV
vector 1147 SmartConeScenario.node[230].veinsmobility posy ETV
vector 1148 SmartConeScenario.node[231].veinsmobility posx ETV
vector 1149 SmartConeScenario.node[231].veinsmobility posy ETV
vector 1150 SmartConeScenario.node[228].veinsmobility acceleration ETV
vector 1151 SmartConeScenario.node[228].veinsmobility co2emission ETV
vector 1152 SmartConeScenario.node[229].veinsmobility acceleration ETV
vector 1153 SmartConeScenario.node[229].veinsmobility co2emission ETV
vector 1154 SmartConeScenario.node[232].veinsmobility posx ETV
vector 1155 SmartConeScenario.node[232].veinsmobility posy ETV
vector 1156 SmartConeScenario.node[230].veinsmobility speed ETV
vector 1157 SmartConeScenario.node[231].veinsmobility speed ETV
vector 1158 SmartConeScenario.node[233].veinsmobility posx ETV
vector 1159 SmartConeScenario.node[233].veinsmobility posy ETV
vector 1160 SmartConeScenario.node[230].veinsmobility acceleration ETV
vector 1161 SmartConeScenario.node[230].veinsmobility co2emission ETV
vector 1162 SmartConeScenario.node[231].veinsmobility acceleration ETV
vector 1163 SmartConeScenario.node[231].veinsmobility co2emission ETV
vector 1164 SmartConeScenario.node[232].veinsmobility speed ETV
vector 1165 SmartConeScenario.node[234].veinsmobility posx ETV
vector 1166 SmartConeScenario.node[234].veinsmobility posy ETV
vector 1167 SmartConeScenario.node[232].veinsmobility acceleration ETV
vector 1168 SmartConeScenario.node[232].veinsmobility co2emission ETV
vector 1169 SmartConeScenario.node[233].veinsmobility speed ETV
vector 1170 SmartConeScenario.node[235].veinsmobility posx ETV
vector 1171 SmartConeScenario.node[235].veinsmobility posy ETV
vector 1172 SmartConeScenario.node[233].veinsmobility acceleration ETV
vector 1173 SmartConeScenario.node[233].veinsmobility co2emission ETV
vector 1174 SmartConeScenario.node[234].veinsmobility speed ETV
vector 1175 SmartConeScenario.node[236].veinsmobility posx ETV
vector 1176 SmartConeScenario.node[236].veinsmobility posy ETV
vector 1177 SmartConeScenario.node[237].veinsmobility posx ETV
vector 1178 SmartConeScenario.node[237].veinsmobility posy ETV
vector 1179 SmartConeScenario.node[234].veinsmobility acceleration ETV
vector 1180 SmartConeScenario.node[234].veinsmobility co2emission ETV
vector 1181 SmartConeScenario.node[235].veinsmobility speed ETV
vector 1182 SmartConeScenario.node[235].veinsmobility acceleration ETV
vector 1183 SmartConeScenario.node[235].veinsmobility co2emission ETV
vector 1184 SmartConeScenario.node[236].veinsmobility speed ETV
vector 1185 SmartConeScenario.node[237].veinsmobility speed ETV
vector 1186 SmartConeScenario.node[238].veinsmobility posx ETV
vector 1187 SmartConeScenario.node[238].veinsmobility posy ETV
vector 1188 SmartConeScenario.node[236].veinsmobility acceleration ETV
vector 1189 SmartConeScenario.node[236].veinsmobility co2emission ETV
vector 1190 SmartConeScenario.node[237].veinsmobility acceleration ETV
vector 1191 SmartConeScenario.node[237].veinsmobility co2emission ETV
vector 1192 SmartConeScenario.node[239].veinsmobility posx ETV
vector 1193 SmartConeScenario.node[239].veinsmobility posy ETV
vector 1194 SmartConeScenario.node[238].veinsmobility speed ETV
vector 1195 SmartConeScenario.node[240].veinsmobility posx ETV
vector 1196 SmartConeScenario.node[240].veinsmobility posy ETV
vector 1197 SmartConeScenario.node[241].veinsmobility posx ETV
vector 1198 SmartConeScenario.node[241].veinsmobility posy ETV
vector 1199 SmartConeScenario.node[238].veinsmobility acceleration ETV
[...]
1216	5146141 1109 97782 115836 220 254 35 25.360133867229 25.366474649806 887.72631410395 22515.943228176
1217	5147250 1110 97782 115836 220 254 35 30.588446061669 506.78195111375 8513.4705195388 2850146.9161628
1218	5148360 1108 97782 115836 220 254 35 28.660069449297 28.665987248982 1003.1949255669 28754.287511305
1219	5149468 1172 97782 115836 220 254 35 -0.15645614974971 1.1120419530135 6.6307598524586 3.793367578947
1220	5150640 1111 97782 115836 220 254 35 1.6750255241368 4.659814527512 97.665024911366 287.50334933645
1221	5151751 1108 97782 115836 220 254 35 8.2997987482312 16.30260041796 519.86803776825 7862.2402034383
1222	5152859 1132 97783 115836 221 254 34 -0.19081187464964 1.4914049700823 7.9890872927291 6.0050853335299
1223	5153991 1076 97783 115836 221 254 34 1.532034147697 5.188278639808 97.888264254097 302.61189881848
1224	5155067 1080 97783 115836 221 254 34 12.402788412927 26.876863738487 515.36254961696 8343.3373793219
1225	5156147 1079 97783 115836 221 254 34 6.7958629021366 16.327022142174 497.16843065115 7447.0033260505
1226	5157226 1041 98744 115836 222 254 33 43.8249559405 525.7110249697 10097.637887343 3764346.5416992
1227	5158267 1049 98744 115836 222 254 33 25.36023394338 25.366222486267 836.99523385554 21229.121967723
1228	5159316 1052 98744 115836 222 254 33 33.021051130291 482.84220317446 7767.7145451186 2480234.1317934
1229	5160368 1051 98744 115836 222 254 33 28.660099680011 28.665689742546 945.8662791985 27111.000649904
1230	5161419 1117 98744 115836 222 254 33 -1.8196204103971 0.066097422122702 -14.390761164997 16.554583393078
1231	5162536 920 98744 115836 222 254 33 0.973 2.0925886657461 47.039344329828 72.920813802922
1232	5163456 1104 98744 115836 222 254 33 -0.083491550199646 1.9334135611611 9.524968531064 9.6944676097663
1233	5164560 1049 98744 115836 222 254 33 1.9493825061801 6.2848397788118 98.425327640717 322.81143467729
1234	5165609 1019 98745 115836 223 254 32 12.525102318034 25.504217235038 488.32677041588 7875.9833693471
1235	5166628 1017 98745 115836 223 254 32 8.2276395784009 16.314747770267 471.04050000733 7059.5103868463
1236	5167645 985 99724 115836 224 254 31 48.769224384083 505.31006180147 9177.2480776578 3297417.2036623
1237	5168630 987 99724 115836 224 254 31 25.360295387289 25.365968957372 786.26441726 19942.3140848
1238	5169617 985 99724 115836 224 254 31 35.653839136069 458.90998309199 7055.7207903132 2144681.9110928
1239	5170602 983 99724 115836 224 254 31 28.660132398458 28.66539232966 888.53805240332 25467.737843487
1240	5171585 1049 99724 115836 224 254 31 -1.6913927201284 0.092634342518702 -12.893296301473 12.639287274816
1241	5172634 857 99724 115836 224 254 31 0.973 2.189661653758 43.08869818256 65.503729462467
1242	5173491 1039 99724 115836 224 254 31 -0.093448307845826 1.8503720289306 7.9936598840206 6.8548344035621
1243	5174530 989 99724 115836 224 254 31 1.9214974960537 6.1849061165733 90.96425986665 291.2024098115
1244	5175519 955 99725 115836 225 254 30 12.515258270282 24.869393232331 463.1329098132 7527.2432711266
1245	5176474 955 99725 115836 225 254 30 9.9518259003819 16.334636218341 443.05293567607 6633.1084953804
1246	5177429 924 100712 115836 226 254 29 53.636094041705 484.77824071747 8295.0149547134 2866571.659919
1247	5178353 924 100712 115836 226 254 29 25.36035586934 25.365713802266 735.53407484907 18655.530257798
1248	5179277 924 100712 115836 226 254 29 38.949452770101 435.02791945554 6371.3310913173 1840495.0520009
1249	5180201 926 100712 115836 226 254 29 28.660173354039 28.665095540084 831.21016865203 23824.494704977
1250	5181127 986 100712 115836 226 254 29 -1.5405668153444 0.071010782386166 -12.354134962048 10.890250111769
1251	5182113 793 100712 115836 226 254 29 0.973 2.1803418148248 38.992912006534 57.131014197829
1252	5182906 970 100712 115836 226 254 29 -0.15847851159311 0.85319039260765 6.3828103179588 3.1194680794339
1253	5183876 928 100712 115836 226 254 29 1.6544861264815 3.9694823961949 82.861124088234 246.44535306255
1254	5184804 892 100713 115836 227 254 28 31.188449894323 411.28261279394 5736.3938622898 1566795.7325355
1255	5185696 895 100713 115836 227 254 28 28.660076905725 28.664800450027 802.54258877892 23002.664589187
1256	5186591 895 100713 115836 227 254 28 32.753088911626 464.08605004224 7456.8261139167 2469032.214207
1257	5187486 896 100713 115836 227 254 28 25.360096349964 25.365456654198 710.16396910715 18011.888039548
1258	5188382 892 100713 115836 227 254 28 12.62213297636 24.327420594333 438.41499417489 7196.2442437232
1259	5189274 892 100713 115836 227 254 28 10.98097784152 16.198606710859 415.2220592321 6218.6802656468
1260	5190166 919 101740 115836 228 254 27 -1.3053436883516 0.082463932736289 -11.705287617973 9.3858149725896
1261	5191085 722 101740 115836 228 254 27 0.973 2.175872766785 34.973548344166 49.509064358944
1262	5191807 906 101740 115836 228 254 27 -0.080644213376953 0.68428080761176 5.1321622959931 2.0551618127969
1263	5192713 860 101740 115836 228 254 27 1.9401691334563 3.7573452467621 75.028718141908 215.52998986937
1264	5193573 862 101740 115836 228 254 27 11.384725373939 16.24092362566 398.74993871884 5941.6217157811
1265	5194435 860 101740 115836 228 254 27 12.60388129094 25.239513038888 438.3545301867 7495.3468290527
1266	5195295 831 101741 115836 229 254 26 37.958622050646 443.12083677071 6652.1546696439 2105539.9213366
1267	5196126 831 101741 115836 229 254 26 25.360161040688 25.365196113197 659.43459057849 16725.153110458
1268	5196957 829 101741 115836 229 254 26 30.100063380019 422.00866961289 6123.1636966701 1825410.11925
1269	5197786 827 101741 115836 229 254 26 25.360063380019 25.364933745956 659.42801664881 16724.819641567
1270	5198613 869 101741 115836 229 254 26 -0.035817805435343 0.61872935109169 4.8561982517219 1.6499554467397
1271	5199482 828 101741 115836 229 254 26 2.1032803942378 3.93114540729 72.017778630373 204.37740228018
1272	5200310 882 101741 115836 229 254 26 -1.3391817055582 0.048564046189338 -12.635631747949 10.265840428756
1273	5201192 678 101741 115836 229 254 26 0.973 2.0911039962016 32.020632004964 42.777439534647
1274	5201870 797 103778 115836 230 254 25 12.795505421286 24.966232467341 411.86191965048 7116.9156293454
1275	5202667 799 103778 115836 230 254 25 12.905465807747 21.396177536092 401.08879094073 6614.3386431957
1276	5203466 766 103779 115836 231 254 24 40.901200554961 400.61832504062 5458.2506041169 1543691.1594778
1277	5204232 765 103779 115836 231 254 24 25.360197608994 25.364667921721 608.70037493916 15438.172815487
1278	5204997 767 103779 115836 231 254 24 38.827932538542 387.46400826508 4945.3072175167 1298760.1093512
1279	5205764 763 103779 115836 231 254 24 28.66017184387 28.664504449076 687.89400043766 19716.589869794
1280	5206527 813 103779 115836 231 254 24 -1.3979062021454 0.03805430592873 -12.132672740126 9.7290150730874
1281	5207340 617 103779 115836 231 254 24 0.973 2.0420489902599 28.443344356864 36.766956481718
1282	5207957 819 103779 115836 231 254 24 -0.81806299375346 -0.056613867529769 -8.4907117283452 3.9214195043002
1283	5208776 627 103779 115836 231 254 24 0.973 1.7611090425228 28.266191083735 35.290381563471
1284	5209403 735 104790 115836 232 254 23 13.180135777725 20.967129916224 369.44554624125 6073.1705033601
1285	5210138 735 104790 115836 232 254 23 15.391782553966 16.650416512243 363.55315522829 5748.5162661599
1286	5210873 704 104791 115836 233 254 22 45.634718854426 378.81715367497 4786.0247062088 1282314.9878278
1287	5211577 698 104791 115836 233 254 22 25.360256433848 25.364396992018 557.97264235107 14151.521383251
1288	5212275 703 104791 115836 233 254 22 35.597844087808 356.93982638648 4336.7428258085 1081463.3129826
1289	5212978 701 104791 115836 233 254 22 25.360131702591 25.364125115902 557.96705899023 14151.238167639
1290	5213679 750 104791 115836 233 254 22 -0.63715095419512 -0.056318083039212 -7.786994138499 3.5125461673232
1291	5214429 584 104791 115836 233 254 22 0.973 1.7828241456095 26.00087488415 32.473487039744
1292	5215013 753 104791 115836 233 254 22 -0.47934637992145 0.17847062601275 -0.5578915897202 0.53070000105887
1293	5215766 683 104791 115836 233 254 22 0.973 2.8955418601301 47.602239051323 108.8137892991
1294	5216449 669 105794 115836 234 254 21 13.343790415518 21.363334800769 342.8287718176 5725.0810580365
1295	5217118 670 105794 115836 234 254 21 13.409124046338 18.330644595354 332.6055146681 5322.1599512972
1296	5217788 638 105795 115836 235 254 20 50.137578575149 363.10210203918 4097.8354460634 1032411.8685908
1297	5218426 638 105795 115836 235 254 20 28.660312392238 28.664201696352 573.24471138149 16430.474986118
1298	5219064 636 105795 115836 235 254 20 46.509690095281 334.7464838606 3795.5420944289 888236.14739578
1299	5219700 639 105795 115836 235 254 20 25.360267307378 25.36384931257 507.24095469124 12864.669331738
1300	5220339 677 105795 115836 235 254 20 -0.76789084281673 -0.083849872257256 -8.019544385251 4.0538813164252
1301	5221016 531 105795 115836 235 254 20 0.73774480312515 1.7241692271855 22.27221071458 26.019959699627
1302	5221547 679 105795 115836 235 254 20 -0.43795251660883 -0.02245005356847 -4.9215205490159 1.4844451624489
1303	5222226 581 105795 115836 235 254 20 0.973 2.4419026789139 27.24982809452 40.835048128189
1304	5222807 606 106798 115836 236 254 19 32.361193347859 338.48089843126 3503.1543791348 823615.54147891
1305	5223413 604 106798 115836 236 254 19 28.66009147976 28.663895721261 544.5776317838 15608.673555828
1306	5224017 607 106798 115836 236 254 19 32.042159043234 312.1364502637 3259.4181701464 710749.05149549
1307	5224624 607 106798 115836 236 254 19 25.360087515025 25.363568330893 481.87460280074 12221.217540485
1308	5225231 605 106798 115836 236 254 19 16.169664532995 20.707915073779 326.75314751233 5652.0727205641
1309	5225836 602 106798 115836 236 254 19 13.606632692538 17.970743957924 299.79059158899 4769.5393308243
1310	5226438 614 106799 115836 237 254 18 -0.94691250185447 0.068205545478502 -4.463838757642 2.6212071480611
1311	5227052 532 106799 115836 237 254 18 0.88214866263578 2.5557376294252 29.869875713518 56.180871325395
1312	5227584 611 106799 115836 237 254 18 -0.38602450592274 -0.10734210657625 -4.3641112653863 1.1823770250267
1313	5228195 537 106799 115836 237 254 18 0.973 2.0223137997723 23.928856197922 33.634477469558
1314	5228732 572 106799 115836 237 254 18 16.261308722872 21.637223410402 319.39165787443 5713.2179312067
1315	5229304 572 106799 115836 237 254 18 13.87144395999 19.06680008046 291.68888510832 4772.3386326806
1316	5229876 540 107297 115836 238 254 17 36.88492350827 313.32314917819 2941.8473110119 642284.27172406
1317	5230416 538 107297 115836 238 254 17 28.660147697513 28.663583078356 487.25127761733 13965.518111142
1318	5230954 579 107297 115836 238 254 17 -0.87842328250018 0.05725130093656 -5.3759146875294 3.1528804384839
1319	5231533 483 107297 115836 238 254 17 0.973 2.5252467743052 26.041126388023 44.975346234376
1320	5232016 575 107297 115836 238 254 17 -0.4829420667722 -0.14641348947673 -5.1953561204697 1.7454357357922
1321	5232591 494 107297 115836 238 254 17 0.973 1.6672538264129 20.12499128054 24.40791057665
1322	5233085 510 107809 115836 239 254 16 46.743447491366 289.0916413019 2596.6448867539 519293.80819227
1323	5233595 508 107809 115836 239 254 16 28.660270212351 28.663281946131 458.58729836565 13143.894404011
1324	5234103 510 107809 115836 239 254 16 16.548514590571 21.67328256079 290.48180235255 5313.49779187
1325	5234613 478 107810 115836 240 254 15 39.225558917792 264.26277965503 2186.6357518481 398954.07560245
1326	5235091 480 107810 115836 240 254 15 28.660176785293 28.662973390412 429.92251374151 12322.22453384
1327	5235571 480 107810 115836 240 254 15 42.616714110338 286.85655883234 2483.4505898611 506671.28223477
1328	5236051 478 107810 115836 240 254 15 25.360218928196 25.36325417009 380.42620234863 9648.2730436428
1329	5236529 509 107810 115836 240 254 15 -0.88103148126522 0.016772401556342 -5.1079955686624 2.698459201229
1330	5237038 431 107810 115836 240 254 15 0.92714761982203 2.3959917248716 21.043912570173 32.958359706721
1331	5237469 478 107810 115836 240 254 15 16.585297877577 18.14743324757 258.10124362298 4445.4908375851
1332	5237947 481 109330 115836 241 254 14 -0.25119980197582 0.015311507283275 -1.5621353699931 0.28865928327598
1333	5238428 446 109330 115836 241 254 14 1.3609700248136 2.5270208184441 27.140475621494 54.46504125509
1334	5238874 446 109330 115836 241 254 14 16.658574090962 18.147708534993 241.5019725192 4169.2478222766
1335	5239320 448 109330 115836 241 254 14 14.527279835129 23.484828084606 254.49951614944 4733.2426439936
1336	5239768 415 109331 115836 242 254 13 43.569410537849 238.82407136743 1760.5777174434 292464.05082666
1337	5240183 414 109331 115836 242 254 13 28.660230767641 28.662657255945 372.59784035539 10679.165441998
1338	5240597 410 109331 115836 242 254 13 34.679570405996 215.30369781574 1524.902780223 225112.86645665
1339	5241007 413 109331 115836 242 254 13 28.660120290928 28.6623649612 372.59491155217 10678.997554416
1340	5241420 444 109331 115836 242 254 13 -0.31561124979386 0.10313468994477 -1.4891344440316 0.36208593221198
1341	5241864 415 109331 115836 242 254 13 1.0770325807857 2.780822913836 25.104950856118 51.616957185259
1342	5242279 437 109331 115836 242 254 13 -1.110260614043 -0.37409858694461 -8.957548249477 6.976098043986
1343	5242716 286 109331 115836 242 254 13 0.973 0.973 12.649 12.307477
1344	5243002 383 110833 115836 243 254 12 16.793639473132 18.783381764306 211.59124051779 3735.7166532521
1345	5243385 380 110833 115836 243 254 12 15.6904116411 16.75586250913 197.81752782016 3262.1324046428
1346	5243765 351 110834 115836 244 254 11 55.980497028448 253.59136087308 1675.1926130708 304924.37923959
1347	5244116 348 110834 115836 244 254 11 25.36038500394 25.362840773486 278.97740061407 7075.3081943636
1348	5244464 351 110834 115836 244 254 11 44.103635449836 191.20779582022 1215.7286895325 161329.57760598
1349	5244815 350 110834 115836 244 254 11 28.660237406614 28.66206551419 315.27169071792 9036.0217285406
1350	5245165 374 110834 115836 244 254 11 -0.35041985018557 0.010685212171463 -1.9897422911745 0.4599194034693
1351	5245539 352 110834 115836 244 254 11 0.95571491467083 2.4225540981755 18.524991342279 32.737454064538
1352	5245891 371 110834 115836 244 254 11 -0.13708154655289 0.37678077565089 0.86752248699929 0.40471523425534
1353	5246262 351 110834 115836 244 254 11 1.7772312362714 3.7272204236185 29.030052053003 81.720680672911
1354	5246613 320 111823 115836 245 254 10 32.982992721045 220.37134853041 1224.6493213174 191724.97811801
1355	5246933 319 111823 115836 245 254 10 25.360099207048 25.362427938417 253.6121122598 6431.9103549351
1356	5247252 319 111823 115836 245 254 10 31.683697754869 158.70712391335 888.40789756674 97684.849555997
1357	5247571 318 111823 115836 245 254 10 28.660083060319 28.66166161858 286.60793368665 8214.4107681102
1358	5247889 320 111823 115836 245 254 10 16.551261288094 26.491401411515 209.30708898064 4481.646493017
1359	5248209 318 111823 115836 245 254 10 15.971012272302 16.646038193065 163.95875158772 2688.6260945648
1360	5248527 300 111824 115836 246 254 9 -1.5265251195154 -0.77583456640841 -9.9401401234202 11.585461028284
1361	5248827 198 111824 115836 246 254 9 0.973 0.973 8.757 8.520561
1362	5249025 304 111824 115836 246 254 9 -0.24244156579441 0.32221945210946 0.55201723895801 0.26977097658862
1363	5249329 288 111824 115836 246 254 9 1.3455120751825 3.6317450485671 23.019969749618 62.614862337529
1364	5249617 288 111824 115836 246 254 9 18.162977249526 27.319573062591 201.2537662289 4579.7264035649
1365	5249905 288 111824 115836 246 254 9 15.850226906409 15.926575512594 142.97691137844 2271.3835949028
1366	5250193 256 112823 115836 247 254 8 38.604428568067 184.10459924983 839.3828460226 109558.60135841
1367	5250449 256 112823 115836 247 254 8 25.360169066319 25.361977240633 202.88794580263 5145.4398223199
1368	5250705 256 112823 115836 247 254 8 34.889500265541 130.69627069922 614.42535054077 56336.421156775
1369	5250961 254 112823 115836 247 254 8 28.66012289979 28.661313519296 229.28515018828 6571.4600135204
1370	5251215 265 112823 115836 247 254 8 -1.3899910101083 -0.8684658923861 -9.156595813065 10.788501953745
1371	5251480 176 112823 115836 247 254 8 0.973 0.973 7.784 7.573832
1372	5251656 275 112823 115836 247 254 8 -0.05544563030824 0.066972507168538 0.053324174785521 0.010684846368243
1373	5251931 256 112823 115836 247 254 8 2.0328613586212 2.5076456428431 18.18346903707 41.485679792626
1374	5252187 223 112824 115836 248 254 7 20.022645274752 26.839424044394 161.83400798285 3778.2270433713
1375	5252410 222 112824 115836 248 254 7 15.898814693476 16.017869628797 111.79070810572 1785.3201914109
1376	5252632 192 113827 115836 249 254 6 44.049826248082 144.59213618363 521.77641673408 53905.41076648
1377	5252824 192 113827 115836 249 254 6 25.360236737911 25.361486207389 152.16462017717 3859.0119402613
1378	5253016 192 113827 115836 249 254 6 38.605554124057 105.08791865205 398.54873884277 30163.831459132
1379	5253208 192 113827 115836 249 254 6 28.660169080307 28.660995276615 171.96308878982 4928.5506515922
1380	5253400 198 113827 115836 249 254 6 -1.463009852674 -0.79800482850915 -6.8167787696425 8.032767531877
1381	5253598 132 113827 115836 249 254 6 0.973 0.973 5.838 5.680374
1382	5253730 206 113827 115836 249 254 6 -0.07059346154565 0.11860736267641 0.024643949165474 0.02742994360317
1383	5253936 190 113827 115836 249 254 6 1.9825952943828 2.72014971018 13.635648632791 31.407956494385
1384	5254126 159 113828 115836 250 254 5 21.83176878605 26.493345562052 120.36719698664 2911.2341807643
1385	5254285 160 113828 115836 250 254 5 16.386437520102 16.707907002371 82.664064655342 1366.7372390839
1386	5254445 128 114829 115836 251 254 4 49.523252246741 101.64089638412 276.88744734177 21042.423925097
1387	5254573 126 114829 115836 251 254 4 25.36030475782 25.360952439434 101.44219823343 2572.6298958971
1388	5254699 128 114829 115836 251 254 4 42.597211377045 77.371583117048 222.68242562837 13229.390632667
1389	5254827 125 114829 115836 251 254 4 28.66021868583 28.66065083739 114.64152461134 3285.6697914319
1390	5254952 131 114829 115836 251 254 4 -1.3098221352261 -1.0324641500744 -4.6615767760019 5.4729170675289
1391	5255083 88 114829 115836 251 254 4 0.973 0.973 3.892 3.786916
1392	5255171 138 114829 115836 251 254 4 -0.10764968631804 -0.056931074390782 -0.32146948226954 0.027447242017867
1393	5255309 128 114829 115836 251 254 4 1.8937829223982 2.0821214230747 7.9997930219266 16.020767939792
1394	5255437 95 114830 115836 252 254 3 23.806911589591 26.18290770567 74.896216148909 1872.6422995897
1395	5255532 96 114830 115836 252 254 3 16.868617318078 17.329618373439 51.265844243329 876.16918487069
1396	5255628 64 115835 115836 253 254 2 46.791751712743 46.791751712743 93.583503425486 4378.936056694
1397	5255692 64 115835 115836 253 254 2 28.660270812642 28.660270812642 57.320541625285 1642.822246108
1398	5255756 62 115835 115836 253 254 2 54.93342591136 54.93342591136 109.86685182272 6035.3625647179
1399	5255818 64 115835 115836 253 254 2 25.360371991673 25.360371991673 50.720743983345 1286.296935112
1400	5255882 66 115835 115836 253 254 2 -1.2765108520201 -1.0994852640588 -2.3759961160789 2.8383478012076
1401	5255948 44 115835 115836 253 254 2 0.973 0.973 1.946 1.893458
1402	5255992 68 115835 115836 253 254 2 -0.26200982162754 -0.19899123373392 -0.46100105536146 0.10824665773224
1403	5256060 64 115835 115836 253 254 2 1.3149120363628 1.5581915052991 2.8731035416618 4.1569544305579
1404	5256124 32 115836 115836 254 254 1 32.049215932163 32.049215932163 32.049215932163 1027.1522418664
1405	5256156 32 115836 115836 254 254 1 28.660087602723 28.660087602723 28.660087602723 821.40062139577
1406	5256188 31 115836 115836 254 254 1 17.94581654011 17.94581654011 17.94581654011 322.0523312913
1407	5256219 30 115836 115836 254 254 1 26.0263993804 26.0263993804 26.0263993804 677.3734647081

